* NGSPICE file created from user_project_wrapper.ext - technology: sky130B

* Black-box entry subcircuit for scanchain abstract view
.subckt scanchain clk_in clk_out data_in data_out latch_enable_in latch_enable_out
+ module_data_in[0] module_data_in[1] module_data_in[2] module_data_in[3] module_data_in[4]
+ module_data_in[5] module_data_in[6] module_data_in[7] module_data_out[0] module_data_out[1]
+ module_data_out[2] module_data_out[3] module_data_out[4] module_data_out[5] module_data_out[6]
+ module_data_out[7] scan_select_in scan_select_out vccd1 vssd1
.ends

* Black-box entry subcircuit for user_module_339501025136214612 abstract view
.subckt user_module_339501025136214612 io_in[0] io_in[1] io_in[2] io_in[3] io_in[4]
+ io_in[5] io_in[6] io_in[7] io_out[0] io_out[1] io_out[2] io_out[3] io_out[4] io_out[5]
+ io_out[6] io_out[7] vccd1 vssd1
.ends

* Black-box entry subcircuit for user_module_340805072482992722 abstract view
.subckt user_module_340805072482992722 io_in[0] io_in[1] io_in[2] io_in[3] io_in[4]
+ io_in[5] io_in[6] io_in[7] io_out[0] io_out[1] io_out[2] io_out[3] io_out[4] io_out[5]
+ io_out[6] io_out[7] vccd1 vssd1
.ends

* Black-box entry subcircuit for user_module_341535056611770964 abstract view
.subckt user_module_341535056611770964 io_in[0] io_in[1] io_in[2] io_in[3] io_in[4]
+ io_in[5] io_in[6] io_in[7] io_out[0] io_out[1] io_out[2] io_out[3] io_out[4] io_out[5]
+ io_out[6] io_out[7] vccd1 vssd1
.ends

* Black-box entry subcircuit for scan_controller abstract view
.subckt scan_controller active_select[0] active_select[1] active_select[2] active_select[3]
+ active_select[4] active_select[5] active_select[6] active_select[7] active_select[8]
+ clk driver_sel[0] driver_sel[1] inputs[0] inputs[1] inputs[2] inputs[3] inputs[4]
+ inputs[5] inputs[6] inputs[7] la_scan_clk_in la_scan_data_in la_scan_data_out la_scan_latch_en
+ la_scan_select oeb[0] oeb[10] oeb[11] oeb[12] oeb[13] oeb[14] oeb[15] oeb[16] oeb[17]
+ oeb[18] oeb[19] oeb[1] oeb[20] oeb[21] oeb[22] oeb[23] oeb[24] oeb[25] oeb[26] oeb[27]
+ oeb[28] oeb[29] oeb[2] oeb[30] oeb[31] oeb[32] oeb[33] oeb[34] oeb[35] oeb[36] oeb[37]
+ oeb[3] oeb[4] oeb[5] oeb[6] oeb[7] oeb[8] oeb[9] outputs[0] outputs[1] outputs[2]
+ outputs[3] outputs[4] outputs[5] outputs[6] outputs[7] ready reset scan_clk_in scan_clk_out
+ scan_data_in scan_data_out scan_latch_en scan_select set_clk_div slow_clk vccd1
+ vssd1
.ends

.subckt user_project_wrapper analog_io[0] analog_io[10] analog_io[11] analog_io[12]
+ analog_io[13] analog_io[14] analog_io[15] analog_io[16] analog_io[17] analog_io[18]
+ analog_io[19] analog_io[1] analog_io[20] analog_io[21] analog_io[22] analog_io[23]
+ analog_io[24] analog_io[25] analog_io[26] analog_io[27] analog_io[28] analog_io[2]
+ analog_io[3] analog_io[4] analog_io[5] analog_io[6] analog_io[7] analog_io[8] analog_io[9]
+ io_in[0] io_in[10] io_in[11] io_in[12] io_in[13] io_in[14] io_in[15] io_in[16] io_in[17]
+ io_in[18] io_in[19] io_in[1] io_in[20] io_in[21] io_in[22] io_in[23] io_in[24] io_in[25]
+ io_in[26] io_in[27] io_in[28] io_in[29] io_in[2] io_in[30] io_in[31] io_in[32] io_in[33]
+ io_in[34] io_in[35] io_in[36] io_in[37] io_in[3] io_in[4] io_in[5] io_in[6] io_in[7]
+ io_in[8] io_in[9] io_oeb[0] io_oeb[10] io_oeb[11] io_oeb[12] io_oeb[13] io_oeb[14]
+ io_oeb[15] io_oeb[16] io_oeb[17] io_oeb[18] io_oeb[19] io_oeb[1] io_oeb[20] io_oeb[21]
+ io_oeb[22] io_oeb[23] io_oeb[24] io_oeb[25] io_oeb[26] io_oeb[27] io_oeb[28] io_oeb[29]
+ io_oeb[2] io_oeb[30] io_oeb[31] io_oeb[32] io_oeb[33] io_oeb[34] io_oeb[35] io_oeb[36]
+ io_oeb[37] io_oeb[3] io_oeb[4] io_oeb[5] io_oeb[6] io_oeb[7] io_oeb[8] io_oeb[9]
+ io_out[0] io_out[10] io_out[11] io_out[12] io_out[13] io_out[14] io_out[15] io_out[16]
+ io_out[17] io_out[18] io_out[19] io_out[1] io_out[20] io_out[21] io_out[22] io_out[23]
+ io_out[24] io_out[25] io_out[26] io_out[27] io_out[28] io_out[29] io_out[2] io_out[30]
+ io_out[31] io_out[32] io_out[33] io_out[34] io_out[35] io_out[36] io_out[37] io_out[3]
+ io_out[4] io_out[5] io_out[6] io_out[7] io_out[8] io_out[9] la_data_in[0] la_data_in[100]
+ la_data_in[101] la_data_in[102] la_data_in[103] la_data_in[104] la_data_in[105]
+ la_data_in[106] la_data_in[107] la_data_in[108] la_data_in[109] la_data_in[10] la_data_in[110]
+ la_data_in[111] la_data_in[112] la_data_in[113] la_data_in[114] la_data_in[115]
+ la_data_in[116] la_data_in[117] la_data_in[118] la_data_in[119] la_data_in[11] la_data_in[120]
+ la_data_in[121] la_data_in[122] la_data_in[123] la_data_in[124] la_data_in[125]
+ la_data_in[126] la_data_in[127] la_data_in[12] la_data_in[13] la_data_in[14] la_data_in[15]
+ la_data_in[16] la_data_in[17] la_data_in[18] la_data_in[19] la_data_in[1] la_data_in[20]
+ la_data_in[21] la_data_in[22] la_data_in[23] la_data_in[24] la_data_in[25] la_data_in[26]
+ la_data_in[27] la_data_in[28] la_data_in[29] la_data_in[2] la_data_in[30] la_data_in[31]
+ la_data_in[32] la_data_in[33] la_data_in[34] la_data_in[35] la_data_in[36] la_data_in[37]
+ la_data_in[38] la_data_in[39] la_data_in[3] la_data_in[40] la_data_in[41] la_data_in[42]
+ la_data_in[43] la_data_in[44] la_data_in[45] la_data_in[46] la_data_in[47] la_data_in[48]
+ la_data_in[49] la_data_in[4] la_data_in[50] la_data_in[51] la_data_in[52] la_data_in[53]
+ la_data_in[54] la_data_in[55] la_data_in[56] la_data_in[57] la_data_in[58] la_data_in[59]
+ la_data_in[5] la_data_in[60] la_data_in[61] la_data_in[62] la_data_in[63] la_data_in[64]
+ la_data_in[65] la_data_in[66] la_data_in[67] la_data_in[68] la_data_in[69] la_data_in[6]
+ la_data_in[70] la_data_in[71] la_data_in[72] la_data_in[73] la_data_in[74] la_data_in[75]
+ la_data_in[76] la_data_in[77] la_data_in[78] la_data_in[79] la_data_in[7] la_data_in[80]
+ la_data_in[81] la_data_in[82] la_data_in[83] la_data_in[84] la_data_in[85] la_data_in[86]
+ la_data_in[87] la_data_in[88] la_data_in[89] la_data_in[8] la_data_in[90] la_data_in[91]
+ la_data_in[92] la_data_in[93] la_data_in[94] la_data_in[95] la_data_in[96] la_data_in[97]
+ la_data_in[98] la_data_in[99] la_data_in[9] la_data_out[0] la_data_out[100] la_data_out[101]
+ la_data_out[102] la_data_out[103] la_data_out[104] la_data_out[105] la_data_out[106]
+ la_data_out[107] la_data_out[108] la_data_out[109] la_data_out[10] la_data_out[110]
+ la_data_out[111] la_data_out[112] la_data_out[113] la_data_out[114] la_data_out[115]
+ la_data_out[116] la_data_out[117] la_data_out[118] la_data_out[119] la_data_out[11]
+ la_data_out[120] la_data_out[121] la_data_out[122] la_data_out[123] la_data_out[124]
+ la_data_out[125] la_data_out[126] la_data_out[127] la_data_out[12] la_data_out[13]
+ la_data_out[14] la_data_out[15] la_data_out[16] la_data_out[17] la_data_out[18]
+ la_data_out[19] la_data_out[1] la_data_out[20] la_data_out[21] la_data_out[22] la_data_out[23]
+ la_data_out[24] la_data_out[25] la_data_out[26] la_data_out[27] la_data_out[28]
+ la_data_out[29] la_data_out[2] la_data_out[30] la_data_out[31] la_data_out[32] la_data_out[33]
+ la_data_out[34] la_data_out[35] la_data_out[36] la_data_out[37] la_data_out[38]
+ la_data_out[39] la_data_out[3] la_data_out[40] la_data_out[41] la_data_out[42] la_data_out[43]
+ la_data_out[44] la_data_out[45] la_data_out[46] la_data_out[47] la_data_out[48]
+ la_data_out[49] la_data_out[4] la_data_out[50] la_data_out[51] la_data_out[52] la_data_out[53]
+ la_data_out[54] la_data_out[55] la_data_out[56] la_data_out[57] la_data_out[58]
+ la_data_out[59] la_data_out[5] la_data_out[60] la_data_out[61] la_data_out[62] la_data_out[63]
+ la_data_out[64] la_data_out[65] la_data_out[66] la_data_out[67] la_data_out[68]
+ la_data_out[69] la_data_out[6] la_data_out[70] la_data_out[71] la_data_out[72] la_data_out[73]
+ la_data_out[74] la_data_out[75] la_data_out[76] la_data_out[77] la_data_out[78]
+ la_data_out[79] la_data_out[7] la_data_out[80] la_data_out[81] la_data_out[82] la_data_out[83]
+ la_data_out[84] la_data_out[85] la_data_out[86] la_data_out[87] la_data_out[88]
+ la_data_out[89] la_data_out[8] la_data_out[90] la_data_out[91] la_data_out[92] la_data_out[93]
+ la_data_out[94] la_data_out[95] la_data_out[96] la_data_out[97] la_data_out[98]
+ la_data_out[99] la_data_out[9] la_oenb[0] la_oenb[100] la_oenb[101] la_oenb[102]
+ la_oenb[103] la_oenb[104] la_oenb[105] la_oenb[106] la_oenb[107] la_oenb[108] la_oenb[109]
+ la_oenb[10] la_oenb[110] la_oenb[111] la_oenb[112] la_oenb[113] la_oenb[114] la_oenb[115]
+ la_oenb[116] la_oenb[117] la_oenb[118] la_oenb[119] la_oenb[11] la_oenb[120] la_oenb[121]
+ la_oenb[122] la_oenb[123] la_oenb[124] la_oenb[125] la_oenb[126] la_oenb[127] la_oenb[12]
+ la_oenb[13] la_oenb[14] la_oenb[15] la_oenb[16] la_oenb[17] la_oenb[18] la_oenb[19]
+ la_oenb[1] la_oenb[20] la_oenb[21] la_oenb[22] la_oenb[23] la_oenb[24] la_oenb[25]
+ la_oenb[26] la_oenb[27] la_oenb[28] la_oenb[29] la_oenb[2] la_oenb[30] la_oenb[31]
+ la_oenb[32] la_oenb[33] la_oenb[34] la_oenb[35] la_oenb[36] la_oenb[37] la_oenb[38]
+ la_oenb[39] la_oenb[3] la_oenb[40] la_oenb[41] la_oenb[42] la_oenb[43] la_oenb[44]
+ la_oenb[45] la_oenb[46] la_oenb[47] la_oenb[48] la_oenb[49] la_oenb[4] la_oenb[50]
+ la_oenb[51] la_oenb[52] la_oenb[53] la_oenb[54] la_oenb[55] la_oenb[56] la_oenb[57]
+ la_oenb[58] la_oenb[59] la_oenb[5] la_oenb[60] la_oenb[61] la_oenb[62] la_oenb[63]
+ la_oenb[64] la_oenb[65] la_oenb[66] la_oenb[67] la_oenb[68] la_oenb[69] la_oenb[6]
+ la_oenb[70] la_oenb[71] la_oenb[72] la_oenb[73] la_oenb[74] la_oenb[75] la_oenb[76]
+ la_oenb[77] la_oenb[78] la_oenb[79] la_oenb[7] la_oenb[80] la_oenb[81] la_oenb[82]
+ la_oenb[83] la_oenb[84] la_oenb[85] la_oenb[86] la_oenb[87] la_oenb[88] la_oenb[89]
+ la_oenb[8] la_oenb[90] la_oenb[91] la_oenb[92] la_oenb[93] la_oenb[94] la_oenb[95]
+ la_oenb[96] la_oenb[97] la_oenb[98] la_oenb[99] la_oenb[9] user_clock2 user_irq[0]
+ user_irq[1] user_irq[2] vccd1 vccd2 vdda1 vdda2 vssa1 vssa2 vssd1 vssd2 wb_clk_i
+ wb_rst_i wbs_ack_o wbs_adr_i[0] wbs_adr_i[10] wbs_adr_i[11] wbs_adr_i[12] wbs_adr_i[13]
+ wbs_adr_i[14] wbs_adr_i[15] wbs_adr_i[16] wbs_adr_i[17] wbs_adr_i[18] wbs_adr_i[19]
+ wbs_adr_i[1] wbs_adr_i[20] wbs_adr_i[21] wbs_adr_i[22] wbs_adr_i[23] wbs_adr_i[24]
+ wbs_adr_i[25] wbs_adr_i[26] wbs_adr_i[27] wbs_adr_i[28] wbs_adr_i[29] wbs_adr_i[2]
+ wbs_adr_i[30] wbs_adr_i[31] wbs_adr_i[3] wbs_adr_i[4] wbs_adr_i[5] wbs_adr_i[6]
+ wbs_adr_i[7] wbs_adr_i[8] wbs_adr_i[9] wbs_cyc_i wbs_dat_i[0] wbs_dat_i[10] wbs_dat_i[11]
+ wbs_dat_i[12] wbs_dat_i[13] wbs_dat_i[14] wbs_dat_i[15] wbs_dat_i[16] wbs_dat_i[17]
+ wbs_dat_i[18] wbs_dat_i[19] wbs_dat_i[1] wbs_dat_i[20] wbs_dat_i[21] wbs_dat_i[22]
+ wbs_dat_i[23] wbs_dat_i[24] wbs_dat_i[25] wbs_dat_i[26] wbs_dat_i[27] wbs_dat_i[28]
+ wbs_dat_i[29] wbs_dat_i[2] wbs_dat_i[30] wbs_dat_i[31] wbs_dat_i[3] wbs_dat_i[4]
+ wbs_dat_i[5] wbs_dat_i[6] wbs_dat_i[7] wbs_dat_i[8] wbs_dat_i[9] wbs_dat_o[0] wbs_dat_o[10]
+ wbs_dat_o[11] wbs_dat_o[12] wbs_dat_o[13] wbs_dat_o[14] wbs_dat_o[15] wbs_dat_o[16]
+ wbs_dat_o[17] wbs_dat_o[18] wbs_dat_o[19] wbs_dat_o[1] wbs_dat_o[20] wbs_dat_o[21]
+ wbs_dat_o[22] wbs_dat_o[23] wbs_dat_o[24] wbs_dat_o[25] wbs_dat_o[26] wbs_dat_o[27]
+ wbs_dat_o[28] wbs_dat_o[29] wbs_dat_o[2] wbs_dat_o[30] wbs_dat_o[31] wbs_dat_o[3]
+ wbs_dat_o[4] wbs_dat_o[5] wbs_dat_o[6] wbs_dat_o[7] wbs_dat_o[8] wbs_dat_o[9] wbs_sel_i[0]
+ wbs_sel_i[1] wbs_sel_i[2] wbs_sel_i[3] wbs_stb_i wbs_we_i
Xscanchain_150 scanchain_150/clk_in scanchain_151/clk_in scanchain_150/data_in scanchain_151/data_in
+ scanchain_150/latch_enable_in scanchain_151/latch_enable_in scanchain_150/module_data_in[0]
+ scanchain_150/module_data_in[1] scanchain_150/module_data_in[2] scanchain_150/module_data_in[3]
+ scanchain_150/module_data_in[4] scanchain_150/module_data_in[5] scanchain_150/module_data_in[6]
+ scanchain_150/module_data_in[7] scanchain_150/module_data_out[0] scanchain_150/module_data_out[1]
+ scanchain_150/module_data_out[2] scanchain_150/module_data_out[3] scanchain_150/module_data_out[4]
+ scanchain_150/module_data_out[5] scanchain_150/module_data_out[6] scanchain_150/module_data_out[7]
+ scanchain_150/scan_select_in scanchain_151/scan_select_in vccd1 vssd1 scanchain
Xscanchain_161 scanchain_161/clk_in scanchain_162/clk_in scanchain_161/data_in scanchain_162/data_in
+ scanchain_161/latch_enable_in scanchain_162/latch_enable_in scanchain_161/module_data_in[0]
+ scanchain_161/module_data_in[1] scanchain_161/module_data_in[2] scanchain_161/module_data_in[3]
+ scanchain_161/module_data_in[4] scanchain_161/module_data_in[5] scanchain_161/module_data_in[6]
+ scanchain_161/module_data_in[7] scanchain_161/module_data_out[0] scanchain_161/module_data_out[1]
+ scanchain_161/module_data_out[2] scanchain_161/module_data_out[3] scanchain_161/module_data_out[4]
+ scanchain_161/module_data_out[5] scanchain_161/module_data_out[6] scanchain_161/module_data_out[7]
+ scanchain_161/scan_select_in scanchain_162/scan_select_in vccd1 vssd1 scanchain
Xscanchain_194 scanchain_194/clk_in scanchain_195/clk_in scanchain_194/data_in scanchain_195/data_in
+ scanchain_194/latch_enable_in scanchain_195/latch_enable_in scanchain_194/module_data_in[0]
+ scanchain_194/module_data_in[1] scanchain_194/module_data_in[2] scanchain_194/module_data_in[3]
+ scanchain_194/module_data_in[4] scanchain_194/module_data_in[5] scanchain_194/module_data_in[6]
+ scanchain_194/module_data_in[7] scanchain_194/module_data_out[0] scanchain_194/module_data_out[1]
+ scanchain_194/module_data_out[2] scanchain_194/module_data_out[3] scanchain_194/module_data_out[4]
+ scanchain_194/module_data_out[5] scanchain_194/module_data_out[6] scanchain_194/module_data_out[7]
+ scanchain_194/scan_select_in scanchain_195/scan_select_in vccd1 vssd1 scanchain
Xscanchain_172 scanchain_172/clk_in scanchain_173/clk_in scanchain_172/data_in scanchain_173/data_in
+ scanchain_172/latch_enable_in scanchain_173/latch_enable_in scanchain_172/module_data_in[0]
+ scanchain_172/module_data_in[1] scanchain_172/module_data_in[2] scanchain_172/module_data_in[3]
+ scanchain_172/module_data_in[4] scanchain_172/module_data_in[5] scanchain_172/module_data_in[6]
+ scanchain_172/module_data_in[7] scanchain_172/module_data_out[0] scanchain_172/module_data_out[1]
+ scanchain_172/module_data_out[2] scanchain_172/module_data_out[3] scanchain_172/module_data_out[4]
+ scanchain_172/module_data_out[5] scanchain_172/module_data_out[6] scanchain_172/module_data_out[7]
+ scanchain_172/scan_select_in scanchain_173/scan_select_in vccd1 vssd1 scanchain
Xscanchain_183 scanchain_183/clk_in scanchain_184/clk_in scanchain_183/data_in scanchain_184/data_in
+ scanchain_183/latch_enable_in scanchain_184/latch_enable_in scanchain_183/module_data_in[0]
+ scanchain_183/module_data_in[1] scanchain_183/module_data_in[2] scanchain_183/module_data_in[3]
+ scanchain_183/module_data_in[4] scanchain_183/module_data_in[5] scanchain_183/module_data_in[6]
+ scanchain_183/module_data_in[7] scanchain_183/module_data_out[0] scanchain_183/module_data_out[1]
+ scanchain_183/module_data_out[2] scanchain_183/module_data_out[3] scanchain_183/module_data_out[4]
+ scanchain_183/module_data_out[5] scanchain_183/module_data_out[6] scanchain_183/module_data_out[7]
+ scanchain_183/scan_select_in scanchain_184/scan_select_in vccd1 vssd1 scanchain
Xuser_module_339501025136214612_229 scanchain_229/module_data_in[0] scanchain_229/module_data_in[1]
+ scanchain_229/module_data_in[2] scanchain_229/module_data_in[3] scanchain_229/module_data_in[4]
+ scanchain_229/module_data_in[5] scanchain_229/module_data_in[6] scanchain_229/module_data_in[7]
+ scanchain_229/module_data_out[0] scanchain_229/module_data_out[1] scanchain_229/module_data_out[2]
+ scanchain_229/module_data_out[3] scanchain_229/module_data_out[4] scanchain_229/module_data_out[5]
+ scanchain_229/module_data_out[6] scanchain_229/module_data_out[7] vccd1 vssd1 user_module_339501025136214612
Xuser_module_339501025136214612_218 scanchain_218/module_data_in[0] scanchain_218/module_data_in[1]
+ scanchain_218/module_data_in[2] scanchain_218/module_data_in[3] scanchain_218/module_data_in[4]
+ scanchain_218/module_data_in[5] scanchain_218/module_data_in[6] scanchain_218/module_data_in[7]
+ scanchain_218/module_data_out[0] scanchain_218/module_data_out[1] scanchain_218/module_data_out[2]
+ scanchain_218/module_data_out[3] scanchain_218/module_data_out[4] scanchain_218/module_data_out[5]
+ scanchain_218/module_data_out[6] scanchain_218/module_data_out[7] vccd1 vssd1 user_module_339501025136214612
Xuser_module_339501025136214612_207 scanchain_207/module_data_in[0] scanchain_207/module_data_in[1]
+ scanchain_207/module_data_in[2] scanchain_207/module_data_in[3] scanchain_207/module_data_in[4]
+ scanchain_207/module_data_in[5] scanchain_207/module_data_in[6] scanchain_207/module_data_in[7]
+ scanchain_207/module_data_out[0] scanchain_207/module_data_out[1] scanchain_207/module_data_out[2]
+ scanchain_207/module_data_out[3] scanchain_207/module_data_out[4] scanchain_207/module_data_out[5]
+ scanchain_207/module_data_out[6] scanchain_207/module_data_out[7] vccd1 vssd1 user_module_339501025136214612
Xuser_module_339501025136214612_048 scanchain_048/module_data_in[0] scanchain_048/module_data_in[1]
+ scanchain_048/module_data_in[2] scanchain_048/module_data_in[3] scanchain_048/module_data_in[4]
+ scanchain_048/module_data_in[5] scanchain_048/module_data_in[6] scanchain_048/module_data_in[7]
+ scanchain_048/module_data_out[0] scanchain_048/module_data_out[1] scanchain_048/module_data_out[2]
+ scanchain_048/module_data_out[3] scanchain_048/module_data_out[4] scanchain_048/module_data_out[5]
+ scanchain_048/module_data_out[6] scanchain_048/module_data_out[7] vccd1 vssd1 user_module_339501025136214612
Xuser_module_339501025136214612_037 scanchain_037/module_data_in[0] scanchain_037/module_data_in[1]
+ scanchain_037/module_data_in[2] scanchain_037/module_data_in[3] scanchain_037/module_data_in[4]
+ scanchain_037/module_data_in[5] scanchain_037/module_data_in[6] scanchain_037/module_data_in[7]
+ scanchain_037/module_data_out[0] scanchain_037/module_data_out[1] scanchain_037/module_data_out[2]
+ scanchain_037/module_data_out[3] scanchain_037/module_data_out[4] scanchain_037/module_data_out[5]
+ scanchain_037/module_data_out[6] scanchain_037/module_data_out[7] vccd1 vssd1 user_module_339501025136214612
Xuser_module_339501025136214612_026 scanchain_026/module_data_in[0] scanchain_026/module_data_in[1]
+ scanchain_026/module_data_in[2] scanchain_026/module_data_in[3] scanchain_026/module_data_in[4]
+ scanchain_026/module_data_in[5] scanchain_026/module_data_in[6] scanchain_026/module_data_in[7]
+ scanchain_026/module_data_out[0] scanchain_026/module_data_out[1] scanchain_026/module_data_out[2]
+ scanchain_026/module_data_out[3] scanchain_026/module_data_out[4] scanchain_026/module_data_out[5]
+ scanchain_026/module_data_out[6] scanchain_026/module_data_out[7] vccd1 vssd1 user_module_339501025136214612
Xuser_module_339501025136214612_015 scanchain_015/module_data_in[0] scanchain_015/module_data_in[1]
+ scanchain_015/module_data_in[2] scanchain_015/module_data_in[3] scanchain_015/module_data_in[4]
+ scanchain_015/module_data_in[5] scanchain_015/module_data_in[6] scanchain_015/module_data_in[7]
+ scanchain_015/module_data_out[0] scanchain_015/module_data_out[1] scanchain_015/module_data_out[2]
+ scanchain_015/module_data_out[3] scanchain_015/module_data_out[4] scanchain_015/module_data_out[5]
+ scanchain_015/module_data_out[6] scanchain_015/module_data_out[7] vccd1 vssd1 user_module_339501025136214612
Xuser_module_339501025136214612_004 scanchain_004/module_data_in[0] scanchain_004/module_data_in[1]
+ scanchain_004/module_data_in[2] scanchain_004/module_data_in[3] scanchain_004/module_data_in[4]
+ scanchain_004/module_data_in[5] scanchain_004/module_data_in[6] scanchain_004/module_data_in[7]
+ scanchain_004/module_data_out[0] scanchain_004/module_data_out[1] scanchain_004/module_data_out[2]
+ scanchain_004/module_data_out[3] scanchain_004/module_data_out[4] scanchain_004/module_data_out[5]
+ scanchain_004/module_data_out[6] scanchain_004/module_data_out[7] vccd1 vssd1 user_module_339501025136214612
Xuser_module_339501025136214612_059 scanchain_059/module_data_in[0] scanchain_059/module_data_in[1]
+ scanchain_059/module_data_in[2] scanchain_059/module_data_in[3] scanchain_059/module_data_in[4]
+ scanchain_059/module_data_in[5] scanchain_059/module_data_in[6] scanchain_059/module_data_in[7]
+ scanchain_059/module_data_out[0] scanchain_059/module_data_out[1] scanchain_059/module_data_out[2]
+ scanchain_059/module_data_out[3] scanchain_059/module_data_out[4] scanchain_059/module_data_out[5]
+ scanchain_059/module_data_out[6] scanchain_059/module_data_out[7] vccd1 vssd1 user_module_339501025136214612
Xscanchain_195 scanchain_195/clk_in scanchain_196/clk_in scanchain_195/data_in scanchain_196/data_in
+ scanchain_195/latch_enable_in scanchain_196/latch_enable_in scanchain_195/module_data_in[0]
+ scanchain_195/module_data_in[1] scanchain_195/module_data_in[2] scanchain_195/module_data_in[3]
+ scanchain_195/module_data_in[4] scanchain_195/module_data_in[5] scanchain_195/module_data_in[6]
+ scanchain_195/module_data_in[7] scanchain_195/module_data_out[0] scanchain_195/module_data_out[1]
+ scanchain_195/module_data_out[2] scanchain_195/module_data_out[3] scanchain_195/module_data_out[4]
+ scanchain_195/module_data_out[5] scanchain_195/module_data_out[6] scanchain_195/module_data_out[7]
+ scanchain_195/scan_select_in scanchain_196/scan_select_in vccd1 vssd1 scanchain
Xscanchain_140 scanchain_140/clk_in scanchain_141/clk_in scanchain_140/data_in scanchain_141/data_in
+ scanchain_140/latch_enable_in scanchain_141/latch_enable_in scanchain_140/module_data_in[0]
+ scanchain_140/module_data_in[1] scanchain_140/module_data_in[2] scanchain_140/module_data_in[3]
+ scanchain_140/module_data_in[4] scanchain_140/module_data_in[5] scanchain_140/module_data_in[6]
+ scanchain_140/module_data_in[7] scanchain_140/module_data_out[0] scanchain_140/module_data_out[1]
+ scanchain_140/module_data_out[2] scanchain_140/module_data_out[3] scanchain_140/module_data_out[4]
+ scanchain_140/module_data_out[5] scanchain_140/module_data_out[6] scanchain_140/module_data_out[7]
+ scanchain_140/scan_select_in scanchain_141/scan_select_in vccd1 vssd1 scanchain
Xscanchain_151 scanchain_151/clk_in scanchain_152/clk_in scanchain_151/data_in scanchain_152/data_in
+ scanchain_151/latch_enable_in scanchain_152/latch_enable_in scanchain_151/module_data_in[0]
+ scanchain_151/module_data_in[1] scanchain_151/module_data_in[2] scanchain_151/module_data_in[3]
+ scanchain_151/module_data_in[4] scanchain_151/module_data_in[5] scanchain_151/module_data_in[6]
+ scanchain_151/module_data_in[7] scanchain_151/module_data_out[0] scanchain_151/module_data_out[1]
+ scanchain_151/module_data_out[2] scanchain_151/module_data_out[3] scanchain_151/module_data_out[4]
+ scanchain_151/module_data_out[5] scanchain_151/module_data_out[6] scanchain_151/module_data_out[7]
+ scanchain_151/scan_select_in scanchain_152/scan_select_in vccd1 vssd1 scanchain
Xscanchain_162 scanchain_162/clk_in scanchain_163/clk_in scanchain_162/data_in scanchain_163/data_in
+ scanchain_162/latch_enable_in scanchain_163/latch_enable_in scanchain_162/module_data_in[0]
+ scanchain_162/module_data_in[1] scanchain_162/module_data_in[2] scanchain_162/module_data_in[3]
+ scanchain_162/module_data_in[4] scanchain_162/module_data_in[5] scanchain_162/module_data_in[6]
+ scanchain_162/module_data_in[7] scanchain_162/module_data_out[0] scanchain_162/module_data_out[1]
+ scanchain_162/module_data_out[2] scanchain_162/module_data_out[3] scanchain_162/module_data_out[4]
+ scanchain_162/module_data_out[5] scanchain_162/module_data_out[6] scanchain_162/module_data_out[7]
+ scanchain_162/scan_select_in scanchain_163/scan_select_in vccd1 vssd1 scanchain
Xscanchain_173 scanchain_173/clk_in scanchain_174/clk_in scanchain_173/data_in scanchain_174/data_in
+ scanchain_173/latch_enable_in scanchain_174/latch_enable_in scanchain_173/module_data_in[0]
+ scanchain_173/module_data_in[1] scanchain_173/module_data_in[2] scanchain_173/module_data_in[3]
+ scanchain_173/module_data_in[4] scanchain_173/module_data_in[5] scanchain_173/module_data_in[6]
+ scanchain_173/module_data_in[7] scanchain_173/module_data_out[0] scanchain_173/module_data_out[1]
+ scanchain_173/module_data_out[2] scanchain_173/module_data_out[3] scanchain_173/module_data_out[4]
+ scanchain_173/module_data_out[5] scanchain_173/module_data_out[6] scanchain_173/module_data_out[7]
+ scanchain_173/scan_select_in scanchain_174/scan_select_in vccd1 vssd1 scanchain
Xscanchain_184 scanchain_184/clk_in scanchain_185/clk_in scanchain_184/data_in scanchain_185/data_in
+ scanchain_184/latch_enable_in scanchain_185/latch_enable_in scanchain_184/module_data_in[0]
+ scanchain_184/module_data_in[1] scanchain_184/module_data_in[2] scanchain_184/module_data_in[3]
+ scanchain_184/module_data_in[4] scanchain_184/module_data_in[5] scanchain_184/module_data_in[6]
+ scanchain_184/module_data_in[7] scanchain_184/module_data_out[0] scanchain_184/module_data_out[1]
+ scanchain_184/module_data_out[2] scanchain_184/module_data_out[3] scanchain_184/module_data_out[4]
+ scanchain_184/module_data_out[5] scanchain_184/module_data_out[6] scanchain_184/module_data_out[7]
+ scanchain_184/scan_select_in scanchain_185/scan_select_in vccd1 vssd1 scanchain
Xuser_module_339501025136214612_208 scanchain_208/module_data_in[0] scanchain_208/module_data_in[1]
+ scanchain_208/module_data_in[2] scanchain_208/module_data_in[3] scanchain_208/module_data_in[4]
+ scanchain_208/module_data_in[5] scanchain_208/module_data_in[6] scanchain_208/module_data_in[7]
+ scanchain_208/module_data_out[0] scanchain_208/module_data_out[1] scanchain_208/module_data_out[2]
+ scanchain_208/module_data_out[3] scanchain_208/module_data_out[4] scanchain_208/module_data_out[5]
+ scanchain_208/module_data_out[6] scanchain_208/module_data_out[7] vccd1 vssd1 user_module_339501025136214612
Xuser_module_339501025136214612_219 scanchain_219/module_data_in[0] scanchain_219/module_data_in[1]
+ scanchain_219/module_data_in[2] scanchain_219/module_data_in[3] scanchain_219/module_data_in[4]
+ scanchain_219/module_data_in[5] scanchain_219/module_data_in[6] scanchain_219/module_data_in[7]
+ scanchain_219/module_data_out[0] scanchain_219/module_data_out[1] scanchain_219/module_data_out[2]
+ scanchain_219/module_data_out[3] scanchain_219/module_data_out[4] scanchain_219/module_data_out[5]
+ scanchain_219/module_data_out[6] scanchain_219/module_data_out[7] vccd1 vssd1 user_module_339501025136214612
Xuser_module_339501025136214612_049 scanchain_049/module_data_in[0] scanchain_049/module_data_in[1]
+ scanchain_049/module_data_in[2] scanchain_049/module_data_in[3] scanchain_049/module_data_in[4]
+ scanchain_049/module_data_in[5] scanchain_049/module_data_in[6] scanchain_049/module_data_in[7]
+ scanchain_049/module_data_out[0] scanchain_049/module_data_out[1] scanchain_049/module_data_out[2]
+ scanchain_049/module_data_out[3] scanchain_049/module_data_out[4] scanchain_049/module_data_out[5]
+ scanchain_049/module_data_out[6] scanchain_049/module_data_out[7] vccd1 vssd1 user_module_339501025136214612
Xuser_module_339501025136214612_038 scanchain_038/module_data_in[0] scanchain_038/module_data_in[1]
+ scanchain_038/module_data_in[2] scanchain_038/module_data_in[3] scanchain_038/module_data_in[4]
+ scanchain_038/module_data_in[5] scanchain_038/module_data_in[6] scanchain_038/module_data_in[7]
+ scanchain_038/module_data_out[0] scanchain_038/module_data_out[1] scanchain_038/module_data_out[2]
+ scanchain_038/module_data_out[3] scanchain_038/module_data_out[4] scanchain_038/module_data_out[5]
+ scanchain_038/module_data_out[6] scanchain_038/module_data_out[7] vccd1 vssd1 user_module_339501025136214612
Xuser_module_339501025136214612_027 scanchain_027/module_data_in[0] scanchain_027/module_data_in[1]
+ scanchain_027/module_data_in[2] scanchain_027/module_data_in[3] scanchain_027/module_data_in[4]
+ scanchain_027/module_data_in[5] scanchain_027/module_data_in[6] scanchain_027/module_data_in[7]
+ scanchain_027/module_data_out[0] scanchain_027/module_data_out[1] scanchain_027/module_data_out[2]
+ scanchain_027/module_data_out[3] scanchain_027/module_data_out[4] scanchain_027/module_data_out[5]
+ scanchain_027/module_data_out[6] scanchain_027/module_data_out[7] vccd1 vssd1 user_module_339501025136214612
Xuser_module_339501025136214612_016 scanchain_016/module_data_in[0] scanchain_016/module_data_in[1]
+ scanchain_016/module_data_in[2] scanchain_016/module_data_in[3] scanchain_016/module_data_in[4]
+ scanchain_016/module_data_in[5] scanchain_016/module_data_in[6] scanchain_016/module_data_in[7]
+ scanchain_016/module_data_out[0] scanchain_016/module_data_out[1] scanchain_016/module_data_out[2]
+ scanchain_016/module_data_out[3] scanchain_016/module_data_out[4] scanchain_016/module_data_out[5]
+ scanchain_016/module_data_out[6] scanchain_016/module_data_out[7] vccd1 vssd1 user_module_339501025136214612
Xuser_module_339501025136214612_005 scanchain_005/module_data_in[0] scanchain_005/module_data_in[1]
+ scanchain_005/module_data_in[2] scanchain_005/module_data_in[3] scanchain_005/module_data_in[4]
+ scanchain_005/module_data_in[5] scanchain_005/module_data_in[6] scanchain_005/module_data_in[7]
+ scanchain_005/module_data_out[0] scanchain_005/module_data_out[1] scanchain_005/module_data_out[2]
+ scanchain_005/module_data_out[3] scanchain_005/module_data_out[4] scanchain_005/module_data_out[5]
+ scanchain_005/module_data_out[6] scanchain_005/module_data_out[7] vccd1 vssd1 user_module_339501025136214612
Xscanchain_196 scanchain_196/clk_in scanchain_197/clk_in scanchain_196/data_in scanchain_197/data_in
+ scanchain_196/latch_enable_in scanchain_197/latch_enable_in scanchain_196/module_data_in[0]
+ scanchain_196/module_data_in[1] scanchain_196/module_data_in[2] scanchain_196/module_data_in[3]
+ scanchain_196/module_data_in[4] scanchain_196/module_data_in[5] scanchain_196/module_data_in[6]