* NGSPICE file created from user_project_wrapper.ext - technology: sky130B

* Black-box entry subcircuit for user_module_349011320806310484 abstract view
.subckt user_module_349011320806310484 io_in[0] io_in[1] io_in[2] io_in[3] io_in[4]
+ io_in[5] io_in[6] io_in[7] io_out[0] io_out[1] io_out[2] io_out[3] io_out[4] io_out[5]
+ io_out[6] io_out[7] vccd1 vssd1
.ends

* Black-box entry subcircuit for user_module_341589685194195540 abstract view
.subckt user_module_341589685194195540 io_in[0] io_in[1] io_in[2] io_in[3] io_in[4]
+ io_in[5] io_in[6] io_in[7] io_out[0] io_out[1] io_out[2] io_out[3] io_out[4] io_out[5]
+ io_out[6] io_out[7] vccd1 vssd1
.ends

* Black-box entry subcircuit for scanchain abstract view
.subckt scanchain clk_in clk_out data_in data_out latch_enable_in latch_enable_out
+ module_data_in[0] module_data_in[1] module_data_in[2] module_data_in[3] module_data_in[4]
+ module_data_in[5] module_data_in[6] module_data_in[7] module_data_out[0] module_data_out[1]
+ module_data_out[2] module_data_out[3] module_data_out[4] module_data_out[5] module_data_out[6]
+ module_data_out[7] scan_select_in scan_select_out vccd1 vssd1
.ends

* Black-box entry subcircuit for luthor2k_top_tto abstract view
.subckt luthor2k_top_tto io_in[0] io_in[1] io_in[2] io_in[3] io_in[4] io_in[5] io_in[6]
+ io_in[7] io_out[0] io_out[1] io_out[2] io_out[3] io_out[4] io_out[5] io_out[6] io_out[7]
+ vccd1 vssd1
.ends

* Black-box entry subcircuit for user_module_348255968419643987 abstract view
.subckt user_module_348255968419643987 io_in[0] io_in[1] io_in[2] io_in[3] io_in[4]
+ io_in[5] io_in[6] io_in[7] io_out[0] io_out[1] io_out[2] io_out[3] io_out[4] io_out[5]
+ io_out[6] io_out[7] vccd1 vssd1
.ends

* Black-box entry subcircuit for user_module_341535056611770964 abstract view
.subckt user_module_341535056611770964 io_in[0] io_in[1] io_in[2] io_in[3] io_in[4]
+ io_in[5] io_in[6] io_in[7] io_out[0] io_out[1] io_out[2] io_out[3] io_out[4] io_out[5]
+ io_out[6] io_out[7] vccd1 vssd1
.ends

* Black-box entry subcircuit for xor_shift32_quantamhd abstract view
.subckt xor_shift32_quantamhd io_in[0] io_in[1] io_in[2] io_in[3] io_in[4] io_in[5]
+ io_in[6] io_in[7] io_out[0] io_out[1] io_out[2] io_out[3] io_out[4] io_out[5] io_out[6]
+ io_out[7] vccd1 vssd1
.ends

* Black-box entry subcircuit for msaghir_top_level abstract view
.subckt msaghir_top_level io_in[0] io_in[1] io_in[2] io_in[3] io_in[4] io_in[5] io_in[6]
+ io_in[7] io_out[0] io_out[1] io_out[2] io_out[3] io_out[4] io_out[5] io_out[6] io_out[7]
+ vccd1 vssd1
.ends

* Black-box entry subcircuit for user_module_skylersaleh abstract view
.subckt user_module_skylersaleh io_in[0] io_in[1] io_in[2] io_in[3] io_in[4] io_in[5]
+ io_in[6] io_in[7] io_out[0] io_out[1] io_out[2] io_out[3] io_out[4] io_out[5] io_out[6]
+ io_out[7] vccd1 vssd1
.ends

* Black-box entry subcircuit for tomkeddie_top_tto abstract view
.subckt tomkeddie_top_tto io_in[0] io_in[1] io_in[2] io_in[3] io_in[4] io_in[5] io_in[6]
+ io_in[7] io_out[0] io_out[1] io_out[2] io_out[3] io_out[4] io_out[5] io_out[6] io_out[7]
+ vccd1 vssd1
.ends

* Black-box entry subcircuit for tholin_avalonsemi_5401 abstract view
.subckt tholin_avalonsemi_5401 io_in[0] io_in[1] io_in[2] io_in[3] io_in[4] io_in[5]
+ io_in[6] io_in[7] io_out[0] io_out[1] io_out[2] io_out[3] io_out[4] io_out[5] io_out[6]
+ io_out[7] vccd1 vssd1
.ends

* Black-box entry subcircuit for AidanMedcalf_pid_controller abstract view
.subckt AidanMedcalf_pid_controller io_in[0] io_in[1] io_in[2] io_in[3] io_in[4] io_in[5]
+ io_in[6] io_in[7] io_out[0] io_out[1] io_out[2] io_out[3] io_out[4] io_out[5] io_out[6]
+ io_out[7] vccd1 vssd1
.ends

* Black-box entry subcircuit for user_module_348381622440034899 abstract view
.subckt user_module_348381622440034899 io_in[0] io_in[1] io_in[2] io_in[3] io_in[4]
+ io_in[5] io_in[6] io_in[7] io_out[0] io_out[1] io_out[2] io_out[3] io_out[4] io_out[5]
+ io_out[6] io_out[7] vccd1 vssd1
.ends

* Black-box entry subcircuit for user_module_349886696875098706 abstract view
.subckt user_module_349886696875098706 io_in[0] io_in[1] io_in[2] io_in[3] io_in[4]
+ io_in[5] io_in[6] io_in[7] io_out[0] io_out[1] io_out[2] io_out[3] io_out[4] io_out[5]
+ io_out[6] io_out[7] vccd1 vssd1
.ends

* Black-box entry subcircuit for ericsmi_speed_test abstract view
.subckt ericsmi_speed_test io_in[0] io_in[1] io_in[2] io_in[3] io_in[4] io_in[5] io_in[6]
+ io_in[7] io_out[0] io_out[1] io_out[2] io_out[3] io_out[4] io_out[5] io_out[6] io_out[7]
+ vccd1 vssd1
.ends

* Black-box entry subcircuit for aramsey118_freq_counter abstract view
.subckt aramsey118_freq_counter io_in[0] io_in[1] io_in[2] io_in[3] io_in[4] io_in[5]
+ io_in[6] io_in[7] io_out[0] io_out[1] io_out[2] io_out[3] io_out[4] io_out[5] io_out[6]
+ io_out[7] vccd1 vssd1
.ends

* Black-box entry subcircuit for rglenn_hex_to_7_seg abstract view
.subckt rglenn_hex_to_7_seg io_in[0] io_in[1] io_in[2] io_in[3] io_in[4] io_in[5]
+ io_in[6] io_in[7] io_out[0] io_out[1] io_out[2] io_out[3] io_out[4] io_out[5] io_out[6]
+ io_out[7] vccd1 vssd1
.ends

* Black-box entry subcircuit for shan1293_2bitalu abstract view
.subckt shan1293_2bitalu io_in[0] io_in[1] io_in[2] io_in[3] io_in[4] io_in[5] io_in[6]
+ io_in[7] io_out[0] io_out[1] io_out[2] io_out[3] io_out[4] io_out[5] io_out[6] io_out[7]
+ vccd1 vssd1
.ends

* Black-box entry subcircuit for user_module_341423712597181012 abstract view
.subckt user_module_341423712597181012 io_in[0] io_in[1] io_in[2] io_in[3] io_in[4]
+ io_in[5] io_in[6] io_in[7] io_out[0] io_out[1] io_out[2] io_out[3] io_out[4] io_out[5]
+ io_out[6] io_out[7] vccd1 vssd1
.ends

* Black-box entry subcircuit for user_module_348121131386929746 abstract view
.subckt user_module_348121131386929746 io_in[0] io_in[1] io_in[2] io_in[3] io_in[4]
+ io_in[5] io_in[6] io_in[7] io_out[0] io_out[1] io_out[2] io_out[3] io_out[4] io_out[5]
+ io_out[6] io_out[7] vccd1 vssd1
.ends

* Black-box entry subcircuit for user_module_341620484740219475 abstract view
.subckt user_module_341620484740219475 io_in[0] io_in[1] io_in[2] io_in[3] io_in[4]
+ io_in[5] io_in[6] io_in[7] io_out[0] io_out[1] io_out[2] io_out[3] io_out[4] io_out[5]
+ io_out[6] io_out[7] vccd1 vssd1
.ends

* Black-box entry subcircuit for user_module_341631644820570706 abstract view
.subckt user_module_341631644820570706 io_in[0] io_in[1] io_in[2] io_in[3] io_in[4]
+ io_in[5] io_in[6] io_in[7] io_out[0] io_out[1] io_out[2] io_out[3] io_out[4] io_out[5]
+ io_out[6] io_out[7] vccd1 vssd1
.ends

* Black-box entry subcircuit for user_module_347619669052490324 abstract view
.subckt user_module_347619669052490324 io_in[0] io_in[1] io_in[2] io_in[3] io_in[4]
+ io_in[5] io_in[6] io_in[7] io_out[0] io_out[1] io_out[2] io_out[3] io_out[4] io_out[5]
+ io_out[6] io_out[7] vccd1 vssd1
.ends

* Black-box entry subcircuit for meriac_tt02_play_tune abstract view
.subckt meriac_tt02_play_tune io_in[0] io_in[1] io_in[2] io_in[3] io_in[4] io_in[5]
+ io_in[6] io_in[7] io_out[0] io_out[1] io_out[2] io_out[3] io_out[4] io_out[5] io_out[6]
+ io_out[7] vccd1 vssd1
.ends

* Black-box entry subcircuit for user_module_341178154799333971 abstract view
.subckt user_module_341178154799333971 io_in[0] io_in[1] io_in[2] io_in[3] io_in[4]
+ io_in[5] io_in[6] io_in[7] io_out[0] io_out[1] io_out[2] io_out[3] io_out[4] io_out[5]
+ io_out[6] io_out[7] vccd1 vssd1
.ends

* Black-box entry subcircuit for tt2_tholin_namebadge abstract view
.subckt tt2_tholin_namebadge io_in[0] io_in[1] io_in[2] io_in[3] io_in[4] io_in[5]
+ io_in[6] io_in[7] io_out[0] io_out[1] io_out[2] io_out[3] io_out[4] io_out[5] io_out[6]
+ io_out[7] vccd1 vssd1
.ends

* Black-box entry subcircuit for logisim_demo abstract view
.subckt logisim_demo io_in[0] io_in[1] io_in[2] io_in[3] io_in[4] io_in[5] io_in[6]
+ io_in[7] io_out[0] io_out[1] io_out[2] io_out[3] io_out[4] io_out[5] io_out[6] io_out[7]
+ vccd1 vssd1
.ends

* Black-box entry subcircuit for user_module_349901899339661908 abstract view
.subckt user_module_349901899339661908 io_in[0] io_in[1] io_in[2] io_in[3] io_in[4]
+ io_in[5] io_in[6] io_in[7] io_out[0] io_out[1] io_out[2] io_out[3] io_out[4] io_out[5]
+ io_out[6] io_out[7] vccd1 vssd1
.ends

* Black-box entry subcircuit for user_module_341490465660469844 abstract view
.subckt user_module_341490465660469844 io_in[0] io_in[1] io_in[2] io_in[3] io_in[4]
+ io_in[5] io_in[6] io_in[7] io_out[0] io_out[1] io_out[2] io_out[3] io_out[4] io_out[5]
+ io_out[6] io_out[7] vccd1 vssd1
.ends

* Black-box entry subcircuit for user_module_341608574336631379 abstract view
.subckt user_module_341608574336631379 io_in[0] io_in[1] io_in[2] io_in[3] io_in[4]
+ io_in[5] io_in[6] io_in[7] io_out[0] io_out[1] io_out[2] io_out[3] io_out[4] io_out[5]
+ io_out[6] io_out[7] vccd1 vssd1
.ends

* Black-box entry subcircuit for user_module_341279123277087315 abstract view
.subckt user_module_341279123277087315 io_in[0] io_in[1] io_in[2] io_in[3] io_in[4]
+ io_in[5] io_in[6] io_in[7] io_out[0] io_out[1] io_out[2] io_out[3] io_out[4] io_out[5]
+ io_out[6] io_out[7] vccd1 vssd1
.ends

* Black-box entry subcircuit for krasin_3_bit_8_channel_pwm_driver abstract view
.subckt krasin_3_bit_8_channel_pwm_driver io_in[0] io_in[1] io_in[2] io_in[3] io_in[4]
+ io_in[5] io_in[6] io_in[7] io_out[0] io_out[1] io_out[2] io_out[3] io_out[4] io_out[5]
+ io_out[6] io_out[7] vccd1 vssd1
.ends

* Black-box entry subcircuit for thunderbird_taillight_ctrl abstract view
.subckt thunderbird_taillight_ctrl io_in[0] io_in[1] io_in[2] io_in[3] io_in[4] io_in[5]
+ io_in[6] io_in[7] io_out[0] io_out[1] io_out[2] io_out[3] io_out[4] io_out[5] io_out[6]
+ io_out[7] vccd1 vssd1
.ends

* Black-box entry subcircuit for mbikovitsky_top abstract view
.subckt mbikovitsky_top io_in[0] io_in[1] io_in[2] io_in[3] io_in[4] io_in[5] io_in[6]
+ io_in[7] io_out[0] io_out[1] io_out[2] io_out[3] io_out[4] io_out[5] io_out[6] io_out[7]
+ vccd1 vssd1
.ends

* Black-box entry subcircuit for rotary_encoder abstract view
.subckt rotary_encoder io_in[0] io_in[1] io_in[2] io_in[3] io_in[4] io_in[5] io_in[6]
+ io_in[7] io_out[0] io_out[1] io_out[2] io_out[3] io_out[4] io_out[5] io_out[6] io_out[7]
+ vccd1 vssd1
.ends

* Black-box entry subcircuit for user_module_347592305412145748 abstract view
.subckt user_module_347592305412145748 io_in[0] io_in[1] io_in[2] io_in[3] io_in[4]
+ io_in[5] io_in[6] io_in[7] io_out[0] io_out[1] io_out[2] io_out[3] io_out[4] io_out[5]
+ io_out[6] io_out[7] vccd1 vssd1
.ends

* Black-box entry subcircuit for moyes0_top_module abstract view
.subckt moyes0_top_module io_in[0] io_in[1] io_in[2] io_in[3] io_in[4] io_in[5] io_in[6]
+ io_in[7] io_out[0] io_out[1] io_out[2] io_out[3] io_out[4] io_out[5] io_out[6] io_out[7]
+ vccd1 vssd1
.ends

* Black-box entry subcircuit for user_module_341438392303616596 abstract view
.subckt user_module_341438392303616596 io_in[0] io_in[1] io_in[2] io_in[3] io_in[4]
+ io_in[5] io_in[6] io_in[7] io_out[0] io_out[1] io_out[2] io_out[3] io_out[4] io_out[5]
+ io_out[6] io_out[7] vccd1 vssd1
.ends

* Black-box entry subcircuit for cpldcpu_MCPU5plus abstract view
.subckt cpldcpu_MCPU5plus io_in[0] io_in[1] io_in[2] io_in[3] io_in[4] io_in[5] io_in[6]
+ io_in[7] io_out[0] io_out[1] io_out[2] io_out[3] io_out[4] io_out[5] io_out[6] io_out[7]
+ vccd1 vssd1
.ends

* Black-box entry subcircuit for user_module_342981109408072274 abstract view
.subckt user_module_342981109408072274 io_in[0] io_in[1] io_in[2] io_in[3] io_in[4]
+ io_in[5] io_in[6] io_in[7] io_out[0] io_out[1] io_out[2] io_out[3] io_out[4] io_out[5]
+ io_out[6] io_out[7] vccd1 vssd1
.ends

* Black-box entry subcircuit for tt2_tholin_diceroll abstract view
.subckt tt2_tholin_diceroll io_in[0] io_in[1] io_in[2] io_in[3] io_in[4] io_in[5]
+ io_in[6] io_in[7] io_out[0] io_out[1] io_out[2] io_out[3] io_out[4] io_out[5] io_out[6]
+ io_out[7] vccd1 vssd1
.ends

* Black-box entry subcircuit for gregdavill_serv_top abstract view
.subckt gregdavill_serv_top io_in[0] io_in[1] io_in[2] io_in[3] io_in[4] io_in[5]
+ io_in[6] io_in[7] io_out[0] io_out[1] io_out[2] io_out[3] io_out[4] io_out[5] io_out[6]
+ io_out[7] vccd1 vssd1
.ends

* Black-box entry subcircuit for user_module_nickoe abstract view
.subckt user_module_nickoe io_in[0] io_in[1] io_in[2] io_in[3] io_in[4] io_in[5] io_in[6]
+ io_in[7] io_out[0] io_out[1] io_out[2] io_out[3] io_out[4] io_out[5] io_out[6] io_out[7]
+ vccd1 vssd1
.ends

* Black-box entry subcircuit for user_module_341541108650607187 abstract view
.subckt user_module_341541108650607187 io_in[0] io_in[1] io_in[2] io_in[3] io_in[4]
+ io_in[5] io_in[6] io_in[7] io_out[0] io_out[1] io_out[2] io_out[3] io_out[4] io_out[5]
+ io_out[6] io_out[7] vccd1 vssd1
.ends

* Black-box entry subcircuit for klei22_ra abstract view
.subckt klei22_ra io_in[0] io_in[1] io_in[2] io_in[3] io_in[4] io_in[5] io_in[6] io_in[7]
+ io_out[0] io_out[1] io_out[2] io_out[3] io_out[4] io_out[5] io_out[6] io_out[7]
+ vccd1 vssd1
.ends

* Black-box entry subcircuit for user_module_349546262775726676 abstract view
.subckt user_module_349546262775726676 io_in[0] io_in[1] io_in[2] io_in[3] io_in[4]
+ io_in[5] io_in[6] io_in[7] io_out[0] io_out[1] io_out[2] io_out[3] io_out[4] io_out[5]
+ io_out[6] io_out[7] vccd1 vssd1
.ends

* Black-box entry subcircuit for user_module_349790606404354643 abstract view
.subckt user_module_349790606404354643 io_in[0] io_in[1] io_in[2] io_in[3] io_in[4]
+ io_in[5] io_in[6] io_in[7] io_out[0] io_out[1] io_out[2] io_out[3] io_out[4] io_out[5]
+ io_out[6] io_out[7] vccd1 vssd1
.ends

* Black-box entry subcircuit for user_module_349952820323025491 abstract view
.subckt user_module_349952820323025491 io_in[0] io_in[1] io_in[2] io_in[3] io_in[4]
+ io_in[5] io_in[6] io_in[7] io_out[0] io_out[1] io_out[2] io_out[3] io_out[4] io_out[5]
+ io_out[6] io_out[7] vccd1 vssd1
.ends

* Black-box entry subcircuit for github_com_proppy_tt02_xls_popcount abstract view
.subckt github_com_proppy_tt02_xls_popcount io_in[0] io_in[1] io_in[2] io_in[3] io_in[4]
+ io_in[5] io_in[6] io_in[7] io_out[0] io_out[1] io_out[2] io_out[3] io_out[4] io_out[5]
+ io_out[6] io_out[7] vccd1 vssd1
.ends

* Black-box entry subcircuit for user_module_341614374571475540 abstract view
.subckt user_module_341614374571475540 io_in[0] io_in[1] io_in[2] io_in[3] io_in[4]
+ io_in[5] io_in[6] io_in[7] io_out[0] io_out[1] io_out[2] io_out[3] io_out[4] io_out[5]
+ io_out[6] io_out[7] vccd1 vssd1
.ends

* Black-box entry subcircuit for krasin_tt02_verilog_spi_7_channel_pwm_driver abstract view
.subckt krasin_tt02_verilog_spi_7_channel_pwm_driver io_in[0] io_in[1] io_in[2] io_in[3]
+ io_in[4] io_in[5] io_in[6] io_in[7] io_out[0] io_out[1] io_out[2] io_out[3] io_out[4]
+ io_out[5] io_out[6] io_out[7] vccd1 vssd1
.ends

* Black-box entry subcircuit for user_module_341178481588044372 abstract view
.subckt user_module_341178481588044372 io_in[0] io_in[1] io_in[2] io_in[3] io_in[4]
+ io_in[5] io_in[6] io_in[7] io_out[0] io_out[1] io_out[2] io_out[3] io_out[4] io_out[5]
+ io_out[6] io_out[7] vccd1 vssd1
.ends

* Black-box entry subcircuit for udxs_sqrt_top abstract view
.subckt udxs_sqrt_top io_in[0] io_in[1] io_in[2] io_in[3] io_in[4] io_in[5] io_in[6]
+ io_in[7] io_out[0] io_out[1] io_out[2] io_out[3] io_out[4] io_out[5] io_out[6] io_out[7]
+ vccd1 vssd1
.ends

* Black-box entry subcircuit for moonbase_cpu_8bit abstract view
.subckt moonbase_cpu_8bit io_in[0] io_in[1] io_in[2] io_in[3] io_in[4] io_in[5] io_in[6]
+ io_in[7] io_out[0] io_out[1] io_out[2] io_out[3] io_out[4] io_out[5] io_out[6] io_out[7]
+ vccd1 vssd1
.ends

* Black-box entry subcircuit for loxodes_sequencer abstract view
.subckt loxodes_sequencer io_in[0] io_in[1] io_in[2] io_in[3] io_in[4] io_in[5] io_in[6]
+ io_in[7] io_out[0] io_out[1] io_out[2] io_out[3] io_out[4] io_out[5] io_out[6] io_out[7]
+ vccd1 vssd1
.ends

* Black-box entry subcircuit for regymm_funnyblinky abstract view
.subckt regymm_funnyblinky io_in[0] io_in[1] io_in[2] io_in[3] io_in[4] io_in[5] io_in[6]
+ io_in[7] io_out[0] io_out[1] io_out[2] io_out[3] io_out[4] io_out[5] io_out[6] io_out[7]
+ vccd1 vssd1
.ends

* Black-box entry subcircuit for adamgreig_tt02_adc_dac abstract view
.subckt adamgreig_tt02_adc_dac io_in[0] io_in[1] io_in[2] io_in[3] io_in[4] io_in[5]
+ io_in[6] io_in[7] io_out[0] io_out[1] io_out[2] io_out[3] io_out[4] io_out[5] io_out[6]
+ io_out[7] vccd1 vssd1
.ends

* Black-box entry subcircuit for user_module_347594509754827347 abstract view
.subckt user_module_347594509754827347 io_in[0] io_in[1] io_in[2] io_in[3] io_in[4]
+ io_in[5] io_in[6] io_in[7] io_out[0] io_out[1] io_out[2] io_out[3] io_out[4] io_out[5]
+ io_out[6] io_out[7] vccd1 vssd1
.ends

* Black-box entry subcircuit for yupferris_bitslam abstract view
.subckt yupferris_bitslam io_in[0] io_in[1] io_in[2] io_in[3] io_in[4] io_in[5] io_in[6]
+ io_in[7] io_out[0] io_out[1] io_out[2] io_out[3] io_out[4] io_out[5] io_out[6] io_out[7]
+ vccd1 vssd1
.ends

* Black-box entry subcircuit for user_module_341628725785264722 abstract view
.subckt user_module_341628725785264722 io_in[0] io_in[1] io_in[2] io_in[3] io_in[4]
+ io_in[5] io_in[6] io_in[7] io_out[0] io_out[1] io_out[2] io_out[3] io_out[4] io_out[5]
+ io_out[6] io_out[7] vccd1 vssd1
.ends

* Black-box entry subcircuit for phasenoisepon_seven_segment_seconds abstract view
.subckt phasenoisepon_seven_segment_seconds io_in[0] io_in[1] io_in[2] io_in[3] io_in[4]
+ io_in[5] io_in[6] io_in[7] io_out[0] io_out[1] io_out[2] io_out[3] io_out[4] io_out[5]
+ io_out[6] io_out[7] vccd1 vssd1
.ends

* Black-box entry subcircuit for user_module_341557831870186068 abstract view
.subckt user_module_341557831870186068 io_in[0] io_in[1] io_in[2] io_in[3] io_in[4]
+ io_in[5] io_in[6] io_in[7] io_out[0] io_out[1] io_out[2] io_out[3] io_out[4] io_out[5]
+ io_out[6] io_out[7] vccd1 vssd1
.ends

* Black-box entry subcircuit for user_module_341631511790879314 abstract view
.subckt user_module_341631511790879314 io_in[0] io_in[1] io_in[2] io_in[3] io_in[4]
+ io_in[5] io_in[6] io_in[7] io_out[0] io_out[1] io_out[2] io_out[3] io_out[4] io_out[5]
+ io_out[6] io_out[7] vccd1 vssd1
.ends

* Black-box entry subcircuit for migcorre_pwm abstract view
.subckt migcorre_pwm io_in[0] io_in[1] io_in[2] io_in[3] io_in[4] io_in[5] io_in[6]
+ io_in[7] io_out[0] io_out[1] io_out[2] io_out[3] io_out[4] io_out[5] io_out[6] io_out[7]
+ vccd1 vssd1
.ends

* Black-box entry subcircuit for user_module_346553315158393428 abstract view
.subckt user_module_346553315158393428 io_in[0] io_in[1] io_in[2] io_in[3] io_in[4]
+ io_in[5] io_in[6] io_in[7] io_out[0] io_out[1] io_out[2] io_out[3] io_out[4] io_out[5]
+ io_out[6] io_out[7] vccd1 vssd1
.ends

* Black-box entry subcircuit for jar_sram_top abstract view
.subckt jar_sram_top io_in[0] io_in[1] io_in[2] io_in[3] io_in[4] io_in[5] io_in[6]
+ io_in[7] io_out[0] io_out[1] io_out[2] io_out[3] io_out[4] io_out[5] io_out[6] io_out[7]
+ vccd1 vssd1
.ends

* Black-box entry subcircuit for user_module_349255310782759507 abstract view
.subckt user_module_349255310782759507 io_in[0] io_in[1] io_in[2] io_in[3] io_in[4]
+ io_in[5] io_in[6] io_in[7] io_out[0] io_out[1] io_out[2] io_out[3] io_out[4] io_out[5]
+ io_out[6] io_out[7] vccd1 vssd1
.ends

* Black-box entry subcircuit for user_module_341546888233747026 abstract view
.subckt user_module_341546888233747026 io_in[0] io_in[1] io_in[2] io_in[3] io_in[4]
+ io_in[5] io_in[6] io_in[7] io_out[0] io_out[1] io_out[2] io_out[3] io_out[4] io_out[5]
+ io_out[6] io_out[7] vccd1 vssd1
.ends

* Black-box entry subcircuit for yubex_egg_timer abstract view
.subckt yubex_egg_timer io_in[0] io_in[1] io_in[2] io_in[3] io_in[4] io_in[5] io_in[6]
+ io_in[7] io_out[0] io_out[1] io_out[2] io_out[3] io_out[4] io_out[5] io_out[6] io_out[7]
+ vccd1 vssd1
.ends

* Black-box entry subcircuit for flygoat_tt02_play_tune abstract view
.subckt flygoat_tt02_play_tune io_in[0] io_in[1] io_in[2] io_in[3] io_in[4] io_in[5]
+ io_in[6] io_in[7] io_out[0] io_out[1] io_out[2] io_out[3] io_out[4] io_out[5] io_out[6]
+ io_out[7] vccd1 vssd1
.ends

* Black-box entry subcircuit for s4ga abstract view
.subckt s4ga io_in[0] io_in[1] io_in[2] io_in[3] io_in[4] io_in[5] io_in[6] io_in[7]
+ io_out[0] io_out[1] io_out[2] io_out[3] io_out[4] io_out[5] io_out[6] io_out[7]
+ vccd1 vssd1
.ends

* Black-box entry subcircuit for rc5_top abstract view
.subckt rc5_top io_in[0] io_in[1] io_in[2] io_in[3] io_in[4] io_in[5] io_in[6] io_in[7]
+ io_out[0] io_out[1] io_out[2] io_out[3] io_out[4] io_out[5] io_out[6] io_out[7]
+ vccd1 vssd1
.ends

* Black-box entry subcircuit for user_module_341614346808328788 abstract view
.subckt user_module_341614346808328788 io_in[0] io_in[1] io_in[2] io_in[3] io_in[4]
+ io_in[5] io_in[6] io_in[7] io_out[0] io_out[1] io_out[2] io_out[3] io_out[4] io_out[5]
+ io_out[6] io_out[7] vccd1 vssd1
.ends

* Black-box entry subcircuit for afoote_w5s8_tt02_top abstract view
.subckt afoote_w5s8_tt02_top io_in[0] io_in[1] io_in[2] io_in[3] io_in[4] io_in[5]
+ io_in[6] io_in[7] io_out[0] io_out[1] io_out[2] io_out[3] io_out[4] io_out[5] io_out[6]
+ io_out[7] vccd1 vssd1
.ends

* Black-box entry subcircuit for adamgreig_tt02_gps_ca_prn abstract view
.subckt adamgreig_tt02_gps_ca_prn io_in[0] io_in[1] io_in[2] io_in[3] io_in[4] io_in[5]
+ io_in[6] io_in[7] io_out[0] io_out[1] io_out[2] io_out[3] io_out[4] io_out[5] io_out[6]
+ io_out[7] vccd1 vssd1
.ends

* Black-box entry subcircuit for browndeer_rv8u abstract view
.subckt browndeer_rv8u io_in[0] io_in[1] io_in[2] io_in[3] io_in[4] io_in[5] io_in[6]
+ io_in[7] io_out[0] io_out[1] io_out[2] io_out[3] io_out[4] io_out[5] io_out[6] io_out[7]
+ vccd1 vssd1
.ends

* Black-box entry subcircuit for user_module_349228308755382868 abstract view
.subckt user_module_349228308755382868 io_in[0] io_in[1] io_in[2] io_in[3] io_in[4]
+ io_in[5] io_in[6] io_in[7] io_out[0] io_out[1] io_out[2] io_out[3] io_out[4] io_out[5]
+ io_out[6] io_out[7] vccd1 vssd1
.ends

* Black-box entry subcircuit for mm21_LEDMatrixTop abstract view
.subckt mm21_LEDMatrixTop io_in[0] io_in[1] io_in[2] io_in[3] io_in[4] io_in[5] io_in[6]
+ io_in[7] io_out[0] io_out[1] io_out[2] io_out[3] io_out[4] io_out[5] io_out[6] io_out[7]
+ vccd1 vssd1
.ends

* Black-box entry subcircuit for cchan_fp8_multiplier abstract view
.subckt cchan_fp8_multiplier io_in[0] io_in[1] io_in[2] io_in[3] io_in[4] io_in[5]
+ io_in[6] io_in[7] io_out[0] io_out[1] io_out[2] io_out[3] io_out[4] io_out[5] io_out[6]
+ io_out[7] vccd1 vssd1
.ends

* Black-box entry subcircuit for user_module_341516949939814994 abstract view
.subckt user_module_341516949939814994 io_in[0] io_in[1] io_in[2] io_in[3] io_in[4]
+ io_in[5] io_in[6] io_in[7] io_out[0] io_out[1] io_out[2] io_out[3] io_out[4] io_out[5]
+ io_out[6] io_out[7] vccd1 vssd1
.ends

* Black-box entry subcircuit for option23ser abstract view
.subckt option23ser io_in[0] io_in[1] io_in[2] io_in[3] io_in[4] io_in[5] io_in[6]
+ io_in[7] io_out[0] io_out[1] io_out[2] io_out[3] io_out[4] io_out[5] io_out[6] io_out[7]
+ vccd1 vssd1
.ends

* Black-box entry subcircuit for tholin_avalonsemi_tbb1143 abstract view
.subckt tholin_avalonsemi_tbb1143 io_in[0] io_in[1] io_in[2] io_in[3] io_in[4] io_in[5]
+ io_in[6] io_in[7] io_out[0] io_out[1] io_out[2] io_out[3] io_out[4] io_out[5] io_out[6]
+ io_out[7] vccd1 vssd1
.ends

* Black-box entry subcircuit for wren6991_whisk_tt2_io_wrapper abstract view
.subckt wren6991_whisk_tt2_io_wrapper io_in[0] io_in[1] io_in[2] io_in[3] io_in[4]
+ io_in[5] io_in[6] io_in[7] io_out[0] io_out[1] io_out[2] io_out[3] io_out[4] io_out[5]
+ io_out[6] io_out[7] vccd1 vssd1
.ends

* Black-box entry subcircuit for azdle_binary_clock abstract view
.subckt azdle_binary_clock io_in[0] io_in[1] io_in[2] io_in[3] io_in[4] io_in[5] io_in[6]
+ io_in[7] io_out[0] io_out[1] io_out[2] io_out[3] io_out[4] io_out[5] io_out[6] io_out[7]
+ vccd1 vssd1
.ends

* Black-box entry subcircuit for user_module_346916357828248146 abstract view
.subckt user_module_346916357828248146 io_in[0] io_in[1] io_in[2] io_in[3] io_in[4]
+ io_in[5] io_in[6] io_in[7] io_out[0] io_out[1] io_out[2] io_out[3] io_out[4] io_out[5]
+ io_out[6] io_out[7] vccd1 vssd1
.ends

* Black-box entry subcircuit for swalense_top abstract view
.subckt swalense_top io_in[0] io_in[1] io_in[2] io_in[3] io_in[4] io_in[5] io_in[6]
+ io_in[7] io_out[0] io_out[1] io_out[2] io_out[3] io_out[4] io_out[5] io_out[6] io_out[7]
+ vccd1 vssd1
.ends

* Black-box entry subcircuit for jglim_7seg abstract view
.subckt jglim_7seg io_in[0] io_in[1] io_in[2] io_in[3] io_in[4] io_in[5] io_in[6]
+ io_in[7] io_out[0] io_out[1] io_out[2] io_out[3] io_out[4] io_out[5] io_out[6] io_out[7]
+ vccd1 vssd1
.ends

* Black-box entry subcircuit for tomkeddie_top_tto_a abstract view
.subckt tomkeddie_top_tto_a io_in[0] io_in[1] io_in[2] io_in[3] io_in[4] io_in[5]
+ io_in[6] io_in[7] io_out[0] io_out[1] io_out[2] io_out[3] io_out[4] io_out[5] io_out[6]
+ io_out[7] vccd1 vssd1
.ends

* Black-box entry subcircuit for tiny_fft abstract view
.subckt tiny_fft io_in[0] io_in[1] io_in[2] io_in[3] io_in[4] io_in[5] io_in[6] io_in[7]
+ io_out[0] io_out[1] io_out[2] io_out[3] io_out[4] io_out[5] io_out[6] io_out[7]
+ vccd1 vssd1
.ends

* Black-box entry subcircuit for rolfmobile99_alu_fsm_top abstract view
.subckt rolfmobile99_alu_fsm_top io_in[0] io_in[1] io_in[2] io_in[3] io_in[4] io_in[5]
+ io_in[6] io_in[7] io_out[0] io_out[1] io_out[2] io_out[3] io_out[4] io_out[5] io_out[6]
+ io_out[7] vccd1 vssd1
.ends

* Black-box entry subcircuit for user_module_348260124451668562 abstract view
.subckt user_module_348260124451668562 io_in[0] io_in[1] io_in[2] io_in[3] io_in[4]
+ io_in[5] io_in[6] io_in[7] io_out[0] io_out[1] io_out[2] io_out[3] io_out[4] io_out[5]
+ io_out[6] io_out[7] vccd1 vssd1
.ends

* Black-box entry subcircuit for Asma_Mohsin_conv_enc_core abstract view
.subckt Asma_Mohsin_conv_enc_core io_in[0] io_in[1] io_in[2] io_in[3] io_in[4] io_in[5]
+ io_in[6] io_in[7] io_out[0] io_out[1] io_out[2] io_out[3] io_out[4] io_out[5] io_out[6]
+ io_out[7] vccd1 vssd1
.ends

* Black-box entry subcircuit for zoechip abstract view
.subckt zoechip io_in[0] io_in[1] io_in[2] io_in[3] io_in[4] io_in[5] io_in[6] io_in[7]
+ io_out[0] io_out[1] io_out[2] io_out[3] io_out[4] io_out[5] io_out[6] io_out[7]
+ vccd1 vssd1
.ends

* Black-box entry subcircuit for xyz_peppergray_Potato1_top abstract view
.subckt xyz_peppergray_Potato1_top io_in[0] io_in[1] io_in[2] io_in[3] io_in[4] io_in[5]
+ io_in[6] io_in[7] io_out[0] io_out[1] io_out[2] io_out[3] io_out[4] io_out[5] io_out[6]
+ io_out[7] vccd1 vssd1
.ends

* Black-box entry subcircuit for tiny_kinda_pic abstract view
.subckt tiny_kinda_pic io_in[0] io_in[1] io_in[2] io_in[3] io_in[4] io_in[5] io_in[6]
+ io_in[7] io_out[0] io_out[1] io_out[2] io_out[3] io_out[4] io_out[5] io_out[6] io_out[7]
+ vccd1 vssd1
.ends

* Black-box entry subcircuit for hex_sr abstract view
.subckt hex_sr io_in[0] io_in[1] io_in[2] io_in[3] io_in[4] io_in[5] io_in[6] io_in[7]
+ io_out[0] io_out[1] io_out[2] io_out[3] io_out[4] io_out[5] io_out[6] io_out[7]
+ vccd1 vssd1
.ends

* Black-box entry subcircuit for option23 abstract view
.subckt option23 io_in[0] io_in[1] io_in[2] io_in[3] io_in[4] io_in[5] io_in[6] io_in[7]
+ io_out[0] io_out[1] io_out[2] io_out[3] io_out[4] io_out[5] io_out[6] io_out[7]
+ vccd1 vssd1
.ends

* Black-box entry subcircuit for user_module_341277789473735250 abstract view
.subckt user_module_341277789473735250 io_in[0] io_in[1] io_in[2] io_in[3] io_in[4]
+ io_in[5] io_in[6] io_in[7] io_out[0] io_out[1] io_out[2] io_out[3] io_out[4] io_out[5]
+ io_out[6] io_out[7] vccd1 vssd1
.ends

* Black-box entry subcircuit for recepsaid_euclidean_algorithm abstract view
.subckt recepsaid_euclidean_algorithm io_in[0] io_in[1] io_in[2] io_in[3] io_in[4]
+ io_in[5] io_in[6] io_in[7] io_out[0] io_out[1] io_out[2] io_out[3] io_out[4] io_out[5]
+ io_out[6] io_out[7] vccd1 vssd1
.ends

* Black-box entry subcircuit for user_module_349953952950780498 abstract view
.subckt user_module_349953952950780498 io_in[0] io_in[1] io_in[2] io_in[3] io_in[4]
+ io_in[5] io_in[6] io_in[7] io_out[0] io_out[1] io_out[2] io_out[3] io_out[4] io_out[5]
+ io_out[6] io_out[7] vccd1 vssd1
.ends

* Black-box entry subcircuit for femto_top abstract view
.subckt femto_top io_in[0] io_in[1] io_in[2] io_in[3] io_in[4] io_in[5] io_in[6] io_in[7]
+ io_out[0] io_out[1] io_out[2] io_out[3] io_out[4] io_out[5] io_out[6] io_out[7]
+ vccd1 vssd1
.ends

* Black-box entry subcircuit for user_module_347894637149553236 abstract view
.subckt user_module_347894637149553236 io_in[0] io_in[1] io_in[2] io_in[3] io_in[4]
+ io_in[5] io_in[6] io_in[7] io_out[0] io_out[1] io_out[2] io_out[3] io_out[4] io_out[5]
+ io_out[6] io_out[7] vccd1 vssd1
.ends

* Black-box entry subcircuit for vaishnavachath_rotary_toplevel abstract view
.subckt vaishnavachath_rotary_toplevel io_in[0] io_in[1] io_in[2] io_in[3] io_in[4]
+ io_in[5] io_in[6] io_in[7] io_out[0] io_out[1] io_out[2] io_out[3] io_out[4] io_out[5]
+ io_out[6] io_out[7] vccd1 vssd1
.ends

* Black-box entry subcircuit for alu_top abstract view
.subckt alu_top io_in[0] io_in[1] io_in[2] io_in[3] io_in[4] io_in[5] io_in[6] io_in[7]
+ io_out[0] io_out[1] io_out[2] io_out[3] io_out[4] io_out[5] io_out[6] io_out[7]
+ vccd1 vssd1
.ends

* Black-box entry subcircuit for moonbase_cpu_4bit abstract view
.subckt moonbase_cpu_4bit io_in[0] io_in[1] io_in[2] io_in[3] io_in[4] io_in[5] io_in[6]
+ io_in[7] io_out[0] io_out[1] io_out[2] io_out[3] io_out[4] io_out[5] io_out[6] io_out[7]
+ vccd1 vssd1
.ends

* Black-box entry subcircuit for user_module_341164910646919762 abstract view
.subckt user_module_341164910646919762 io_in[0] io_in[1] io_in[2] io_in[3] io_in[4]
+ io_in[5] io_in[6] io_in[7] io_out[0] io_out[1] io_out[2] io_out[3] io_out[4] io_out[5]
+ io_out[6] io_out[7] vccd1 vssd1
.ends

* Black-box entry subcircuit for fraserbc_simon abstract view
.subckt fraserbc_simon io_in[0] io_in[1] io_in[2] io_in[3] io_in[4] io_in[5] io_in[6]
+ io_in[7] io_out[0] io_out[1] io_out[2] io_out[3] io_out[4] io_out[5] io_out[6] io_out[7]