*SPEF "ieee 1481-1999"
*DESIGN "adamgreig_tt02_adc_dac"
*DATE "11:11:11 Fri 11 11, 1111"
*VENDOR "OpenRCX"
*PROGRAM "Parallel Extraction"
*VERSION "1.0"
*DESIGN_FLOW "NAME_SCOPE LOCAL" "PIN_CAP NONE"
*DIVIDER /
*DELIMITER :
*BUS_DELIMITER []
*T_UNIT 1 NS
*C_UNIT 1 PF
*R_UNIT 1 OHM
*L_UNIT 1 HENRY

*NAME_MAP
*1 io_in[0]
*2 io_in[1]
*3 io_in[2]
*4 io_in[3]
*5 io_in[4]
*6 io_in[5]
*7 io_in[6]
*8 io_in[7]
*9 io_out[0]
*10 io_out[1]
*11 io_out[2]
*12 net4
*13 net5
*14 net6
*15 net7
*16 net8
*19 _0000_
*20 _0001_
*21 _0002_
*22 _0003_
*23 _0004_
*24 _0005_
*25 _0006_
*26 _0007_
*27 _0008_
*28 _0009_
*29 _0010_
*30 _0011_
*31 _0012_
*32 _0013_
*33 _0014_
*34 _0015_
*35 _0016_
*36 _0017_
*37 _0018_
*38 _0019_
*39 _0020_
*40 _0021_
*41 _0022_
*42 _0023_
*43 _0024_
*44 _0025_
*45 _0026_
*46 _0027_
*47 _0028_
*48 _0029_
*49 _0030_
*50 _0031_
*51 _0032_
*52 _0033_
*53 _0034_
*54 _0035_
*55 _0036_
*56 _0037_
*57 _0038_
*58 _0039_
*59 _0040_
*60 _0041_
*61 _0042_
*62 _0043_
*63 _0044_
*64 _0045_
*65 _0046_
*66 _0047_
*67 _0048_
*68 _0049_
*69 _0050_
*70 _0051_
*71 _0052_
*72 _0053_
*73 _0054_
*74 _0055_
*75 _0056_
*76 _0057_
*77 _0058_
*78 _0059_
*79 _0060_
*80 _0061_
*81 _0062_
*82 _0063_
*83 _0064_
*84 _0065_
*85 _0066_
*86 _0067_
*87 _0068_
*88 _0069_
*89 _0070_
*90 _0071_
*91 _0072_
*92 _0073_
*93 _0074_
*94 _0075_
*95 _0076_
*96 _0077_
*97 _0078_
*98 _0079_
*99 _0080_
*100 _0081_
*101 _0082_
*102 _0083_
*103 _0084_
*104 _0085_
*105 _0086_
*106 _0087_
*107 _0088_
*108 _0089_
*109 _0090_
*110 _0091_
*111 _0092_
*112 _0093_
*113 _0094_
*114 _0095_
*115 _0096_
*116 _0097_
*117 _0098_
*118 _0099_
*119 _0100_
*120 _0101_
*121 _0102_
*122 _0103_
*123 _0104_
*124 _0105_
*125 _0106_
*126 _0107_
*127 _0108_
*128 _0109_
*129 _0110_
*130 _0111_
*131 _0112_
*132 _0113_
*133 _0114_
*134 _0115_
*135 _0116_
*136 _0117_
*137 _0118_
*138 _0119_
*139 _0120_
*140 _0121_
*141 _0122_
*142 _0123_
*143 _0124_
*144 _0125_
*145 _0126_
*146 _0127_
*147 _0128_
*148 _0129_
*149 _0130_
*150 _0131_
*151 _0132_
*152 _0133_
*153 _0134_
*154 _0135_
*155 _0136_
*156 _0137_
*157 _0138_
*158 _0139_
*159 _0140_
*160 _0141_
*161 _0142_
*162 _0143_
*163 _0144_
*164 _0145_
*165 _0146_
*166 _0147_
*167 _0148_
*168 _0149_
*169 _0150_
*170 _0151_
*171 _0152_
*172 _0153_
*173 _0154_
*174 _0155_
*175 _0156_
*176 _0157_
*177 _0158_
*178 _0159_
*179 _0160_
*180 _0161_
*181 _0162_
*182 _0163_
*183 _0164_
*184 _0165_
*185 _0166_
*186 _0167_
*187 _0168_
*188 _0169_
*189 _0170_
*190 _0171_
*191 _0172_
*192 _0173_
*193 _0174_
*194 _0175_
*195 _0176_
*196 _0177_
*197 _0178_
*198 _0179_
*199 _0180_
*200 _0181_
*201 _0182_
*202 _0183_
*203 _0184_
*204 _0185_
*205 _0186_
*206 _0187_
*207 _0188_
*208 _0189_
*209 _0190_
*210 _0191_
*211 _0192_
*212 _0193_
*213 _0194_
*214 _0195_
*215 _0196_
*216 _0197_
*217 _0198_
*218 _0199_
*219 _0200_
*220 _0201_
*221 _0202_
*222 _0203_
*223 _0204_
*224 _0205_
*225 _0206_
*226 _0207_
*227 _0208_
*228 _0209_
*229 _0210_
*230 _0211_
*231 _0212_
*232 _0213_
*233 _0214_
*234 _0215_
*235 _0216_
*236 _0217_
*237 _0218_
*238 _0219_
*239 _0220_
*240 _0221_
*241 _0222_
*242 _0223_
*243 _0224_
*244 _0225_
*245 _0226_
*246 _0227_
*247 _0228_
*248 _0229_
*249 _0230_
*250 _0231_
*251 _0232_
*252 _0233_
*253 _0234_
*254 _0235_
*255 _0236_
*256 _0237_
*257 _0238_
*258 _0239_
*259 _0240_
*260 _0241_
*261 _0242_
*262 _0243_
*263 _0244_
*264 _0245_
*265 _0246_
*266 _0247_
*267 _0248_
*268 _0249_
*269 _0250_
*270 _0251_
*271 _0252_
*272 _0253_
*273 _0254_
*274 _0255_
*275 _0256_
*276 _0257_
*277 _0258_
*278 _0259_
*279 _0260_
*280 _0261_
*281 _0262_
*282 _0263_
*283 _0264_
*284 _0265_
*285 _0266_
*286 _0267_
*287 _0268_
*288 _0269_
*289 _0270_
*290 _0271_
*291 _0272_
*292 _0273_
*293 _0274_
*294 _0275_
*295 _0276_
*296 _0277_
*297 _0278_
*298 _0279_
*299 _0280_
*300 _0281_
*301 _0282_
*302 _0283_
*303 _0284_
*304 _0285_
*305 _0286_
*306 _0287_
*307 _0288_
*308 _0289_
*309 _0290_
*310 _0291_
*311 _0292_
*312 _0293_
*313 _0294_
*314 _0295_
*315 _0296_
*316 _0297_
*317 _0298_
*318 _0299_
*319 _0300_
*320 _0301_
*321 _0302_
*322 _0303_
*323 _0304_
*324 _0305_
*325 _0306_
*326 _0307_
*327 _0308_
*328 _0309_
*329 _0310_
*330 _0311_
*331 _0312_
*332 _0313_
*333 _0314_
*334 _0315_
*335 _0316_
*336 _0317_
*337 _0318_
*338 _0319_
*339 _0320_
*340 _0321_
*341 _0322_
*342 _0323_
*343 _0324_
*344 _0325_
*345 _0326_
*346 _0327_
*347 _0328_
*348 _0329_
*349 _0330_
*350 _0331_
*351 _0332_
*352 _0333_
*353 _0334_
*354 _0335_
*355 _0336_
*356 _0337_
*357 _0338_
*358 _0339_
*359 _0340_
*360 _0341_
*361 _0342_
*362 _0343_
*363 _0344_
*364 _0345_
*365 _0346_
*366 _0347_
*367 _0348_
*368 _0349_
*369 _0350_
*370 _0351_
*371 _0352_
*372 _0353_
*373 _0354_
*374 _0355_
*375 _0356_
*376 _0357_
*377 _0358_
*378 _0359_
*379 _0360_
*380 _0361_
*381 _0362_
*382 _0363_
*383 _0364_
*384 _0365_
*385 _0366_
*386 _0367_
*387 _0368_
*388 _0369_
*389 _0370_
*390 _0371_
*391 _0372_
*392 _0373_
*393 _0374_
*394 _0375_
*395 _0376_
*396 _0377_
*397 _0378_
*398 _0379_
*399 _0380_
*400 _0381_
*401 _0382_
*402 _0383_
*403 _0384_
*404 _0385_
*405 _0386_
*406 _0387_
*407 _0388_
*408 _0389_
*409 _0390_
*410 _0391_
*411 _0392_
*412 _0393_
*413 _0394_
*414 _0395_
*415 _0396_
*416 _0397_
*417 _0398_
*418 _0399_
*419 _0400_
*420 _0401_
*421 _0402_
*422 _0403_
*423 _0404_
*424 _0405_
*425 _0406_
*426 _0407_
*427 _0408_
*428 _0409_
*429 _0410_
*430 _0411_
*431 _0412_
*432 _0413_
*433 _0414_
*434 _0415_
*435 _0416_
*436 _0417_
*437 _0418_
*438 _0419_
*439 _0420_
*440 _0421_
*441 _0422_
*442 _0423_
*443 _0424_
*444 _0425_
*445 _0426_
*446 _0427_
*447 _0428_
*448 _0429_
*449 _0430_
*450 _0431_
*451 _0432_
*452 _0433_
*453 _0434_
*454 _0435_
*455 _0436_
*456 _0437_
*457 _0438_
*458 _0439_
*459 _0440_
*460 _0441_
*461 _0442_
*462 _0443_
*463 _0444_
*464 _0445_
*465 _0446_
*466 _0447_
*467 adc\.dac\.acc\[0\]
*468 adc\.dac\.acc\[10\]
*469 adc\.dac\.acc\[11\]
*470 adc\.dac\.acc\[12\]
*471 adc\.dac\.acc\[1\]
*472 adc\.dac\.acc\[2\]
*473 adc\.dac\.acc\[3\]
*474 adc\.dac\.acc\[4\]
*475 adc\.dac\.acc\[5\]
*476 adc\.dac\.acc\[6\]
*477 adc\.dac\.acc\[7\]
*478 adc\.dac\.acc\[8\]
*479 adc\.dac\.acc\[9\]
*480 adc\.data\[0\]
*481 adc\.data\[10\]
*482 adc\.data\[11\]
*483 adc\.data\[1\]
*484 adc\.data\[2\]
*485 adc\.data\[3\]
*486 adc\.data\[4\]
*487 adc\.data\[5\]
*488 adc\.data\[6\]
*489 adc\.data\[7\]
*490 adc\.data\[8\]
*491 adc\.data\[9\]
*492 adc_uart\.data_reg\[0\]
*493 adc_uart\.data_reg\[10\]
*494 adc_uart\.data_reg\[11\]
*495 adc_uart\.data_reg\[1\]
*496 adc_uart\.data_reg\[2\]
*497 adc_uart\.data_reg\[3\]
*498 adc_uart\.data_reg\[4\]
*499 adc_uart\.data_reg\[5\]
*500 adc_uart\.data_reg\[6\]
*501 adc_uart\.data_reg\[7\]
*502 adc_uart\.data_reg\[8\]
*503 adc_uart\.data_reg\[9\]
*504 adc_uart\.fsm_state\[0\]
*505 adc_uart\.fsm_state\[1\]
*506 adc_uart\.fsm_state\[2\]
*507 adc_uart\.tx_o
*508 adc_uart\.uart\.tx_cnt\[0\]
*509 adc_uart\.uart\.tx_cnt\[1\]
*510 adc_uart\.uart\.tx_cnt\[2\]
*511 adc_uart\.uart\.tx_cnt\[3\]
*512 adc_uart\.uart\.tx_reg\[1\]
*513 adc_uart\.uart\.tx_reg\[2\]
*514 adc_uart\.uart\.tx_reg\[3\]
*515 adc_uart\.uart\.tx_reg\[4\]
*516 adc_uart\.uart\.tx_reg\[5\]
*517 adc_uart\.uart\.tx_reg\[6\]
*518 adc_uart\.uart\.tx_reg\[7\]
*519 adc_uart\.uart\.tx_reg\[8\]
*520 adc_uart\.uart\.tx_reg\[9\]
*521 adc_uart\.valid
*522 clknet_0_io_in[0]
*523 clknet_3_0__leaf_io_in[0]
*524 clknet_3_1__leaf_io_in[0]
*525 clknet_3_2__leaf_io_in[0]
*526 clknet_3_3__leaf_io_in[0]
*527 clknet_3_4__leaf_io_in[0]
*528 clknet_3_5__leaf_io_in[0]
*529 clknet_3_6__leaf_io_in[0]
*530 clknet_3_7__leaf_io_in[0]
*531 dac\.acc\[0\]
*532 dac\.acc\[1\]
*533 dac\.acc\[2\]
*534 dac\.acc\[3\]
*535 dac\.acc\[4\]
*536 dac\.acc\[5\]
*537 dac\.acc\[6\]
*538 dac\.acc\[7\]
*539 dac\.acc\[8\]
*540 dac_uart\.bit_idx\[0\]
*541 dac_uart\.bit_idx\[1\]
*542 dac_uart\.bit_idx\[2\]
*543 dac_uart\.bit_idx\[3\]
*544 dac_uart\.ctr\[0\]
*545 dac_uart\.ctr\[1\]
*546 dac_uart\.ctr\[2\]
*547 dac_uart\.ctr\[3\]
*548 dac_uart\.data\[0\]
*549 dac_uart\.data\[1\]
*550 dac_uart\.data\[2\]
*551 dac_uart\.data\[3\]
*552 dac_uart\.data\[4\]
*553 dac_uart\.data\[5\]
*554 dac_uart\.data\[6\]
*555 dac_uart\.data\[7\]
*556 dac_uart\.fsm_state
*557 dac_uart\.sr\[0\]
*558 dac_uart\.sr\[1\]
*559 dac_uart\.sr\[2\]
*560 dac_uart\.sr\[3\]
*561 dac_uart\.sr\[4\]
*562 dac_uart\.sr\[5\]
*563 dac_uart\.sr\[6\]
*564 dac_uart\.sr\[7\]
*565 net1
*566 net2
*567 net3
*568 ready_sr\[0\]
*569 ready_sr\[1\]
*570 ready_sr\[2\]
*571 ready_sr\[3\]
*572 ready_sr\[4\]
*573 ready_sr\[5\]
*574 ready_sr\[6\]
*575 ready_sr\[7\]
*576 ready_sr\[8\]
*577 ANTENNA_0
*578 ANTENNA_1
*579 ANTENNA_10
*580 ANTENNA_11
*581 ANTENNA_12
*582 ANTENNA_2
*583 ANTENNA_3
*584 ANTENNA_4
*585 ANTENNA_5
*586 ANTENNA_6
*587 ANTENNA_7
*588 ANTENNA_8
*589 ANTENNA_9
*590 FILLER_0_108
*591 FILLER_0_129
*592 FILLER_0_133
*593 FILLER_0_139
*594 FILLER_0_141
*595 FILLER_0_147
*596 FILLER_0_151
*597 FILLER_0_157
*598 FILLER_0_163
*599 FILLER_0_167
*600 FILLER_0_169
*601 FILLER_0_181
*602 FILLER_0_193
*603 FILLER_0_197
*604 FILLER_0_209
*605 FILLER_0_221
*606 FILLER_0_225
*607 FILLER_0_237
*608 FILLER_0_24
*609 FILLER_0_249
*610 FILLER_0_253
*611 FILLER_0_265
*612 FILLER_0_277
*613 FILLER_0_281
*614 FILLER_0_29
*615 FILLER_0_293
*616 FILLER_0_3
*617 FILLER_0_35
*618 FILLER_0_52
*619 FILLER_0_7
*620 FILLER_0_73
*621 FILLER_0_77
*622 FILLER_0_83
*623 FILLER_0_85
*624 FILLER_0_91
*625 FILLER_10_110
*626 FILLER_10_132
*627 FILLER_10_141
*628 FILLER_10_153
*629 FILLER_10_162
*630 FILLER_10_177
*631 FILLER_10_181
*632 FILLER_10_187
*633 FILLER_10_195
*634 FILLER_10_203
*635 FILLER_10_210
*636 FILLER_10_217
*637 FILLER_10_229
*638 FILLER_10_236
*639 FILLER_10_24
*640 FILLER_10_248
*641 FILLER_10_253
*642 FILLER_10_265
*643 FILLER_10_277
*644 FILLER_10_289
*645 FILLER_10_29
*646 FILLER_10_294
*647 FILLER_10_298
*648 FILLER_10_3
*649 FILLER_10_35
*650 FILLER_10_52
*651 FILLER_10_80
*652 FILLER_10_85
*653 FILLER_11_105
*654 FILLER_11_111
*655 FILLER_11_113
*656 FILLER_11_125
*657 FILLER_11_137
*658 FILLER_11_149
*659 FILLER_11_15
*660 FILLER_11_161
*661 FILLER_11_167
*662 FILLER_11_175
*663 FILLER_11_183
*664 FILLER_11_190
*665 FILLER_11_197
*666 FILLER_11_204
*667 FILLER_11_216
*668 FILLER_11_230
*669 FILLER_11_242
*670 FILLER_11_254
*671 FILLER_11_266
*672 FILLER_11_278
*673 FILLER_11_281
*674 FILLER_11_287
*675 FILLER_11_3
*676 FILLER_11_36
*677 FILLER_11_48
*678 FILLER_11_57
*679 FILLER_11_69
*680 FILLER_11_93
*681 FILLER_12_101
*682 FILLER_12_113
*683 FILLER_12_133
*684 FILLER_12_139
*685 FILLER_12_141
*686 FILLER_12_156
*687 FILLER_12_165
*688 FILLER_12_177
*689 FILLER_12_189
*690 FILLER_12_195
*691 FILLER_12_197
*692 FILLER_12_209
*693 FILLER_12_217
*694 FILLER_12_223
*695 FILLER_12_23
*696 FILLER_12_235
*697 FILLER_12_247
*698 FILLER_12_251
*699 FILLER_12_262
*700 FILLER_12_27
*701 FILLER_12_274
*702 FILLER_12_280
*703 FILLER_12_286
*704 FILLER_12_29
*705 FILLER_12_293
*706 FILLER_12_3
*707 FILLER_12_53
*708 FILLER_12_73
*709 FILLER_12_81
*710 FILLER_13_107
*711 FILLER_13_111
*712 FILLER_13_113
*713 FILLER_13_125
*714 FILLER_13_137
*715 FILLER_13_149
*716 FILLER_13_164
*717 FILLER_13_176
*718 FILLER_13_188
*719 FILLER_13_19
*720 FILLER_13_196
*721 FILLER_13_202
*722 FILLER_13_210
*723 FILLER_13_218
*724 FILLER_13_231
*725 FILLER_13_243
*726 FILLER_13_249
*727 FILLER_13_261
*728 FILLER_13_27
*729 FILLER_13_273
*730 FILLER_13_279
*731 FILLER_13_281
*732 FILLER_13_293
*733 FILLER_13_45
*734 FILLER_13_53
*735 FILLER_13_57
*736 FILLER_13_65
*737 FILLER_13_87
*738 FILLER_14_108
*739 FILLER_14_128
*740 FILLER_14_141
*741 FILLER_14_153
*742 FILLER_14_157
*743 FILLER_14_169
*744 FILLER_14_177
*745 FILLER_14_187
*746 FILLER_14_195
*747 FILLER_14_203
*748 FILLER_14_207
*749 FILLER_14_21
*750 FILLER_14_211
*751 FILLER_14_223
*752 FILLER_14_235
*753 FILLER_14_247
*754 FILLER_14_251
*755 FILLER_14_253
*756 FILLER_14_265
*757 FILLER_14_27
*758 FILLER_14_277
*759 FILLER_14_288
*760 FILLER_14_296
*761 FILLER_14_3
*762 FILLER_14_45
*763 FILLER_14_49
*764 FILLER_14_67
*765 FILLER_14_79
*766 FILLER_14_83
*767 FILLER_14_85
*768 FILLER_14_91
*769 FILLER_15_111
*770 FILLER_15_113
*771 FILLER_15_117
*772 FILLER_15_134
*773 FILLER_15_146
*774 FILLER_15_15
*775 FILLER_15_158
*776 FILLER_15_166
*777 FILLER_15_169
*778 FILLER_15_177
*779 FILLER_15_183
*780 FILLER_15_195
*781 FILLER_15_199
*782 FILLER_15_205
*783 FILLER_15_209
*784 FILLER_15_215
*785 FILLER_15_223
*786 FILLER_15_225
*787 FILLER_15_237
*788 FILLER_15_249
*789 FILLER_15_261
*790 FILLER_15_27
*791 FILLER_15_271
*792 FILLER_15_279
*793 FILLER_15_281
*794 FILLER_15_295
*795 FILLER_15_3
*796 FILLER_15_47
*797 FILLER_15_55
*798 FILLER_15_57
*799 FILLER_15_69
*800 FILLER_15_87
*801 FILLER_15_99
*802 FILLER_16_102
*803 FILLER_16_114
*804 FILLER_16_118
*805 FILLER_16_135
*806 FILLER_16_139
*807 FILLER_16_141
*808 FILLER_16_153
*809 FILLER_16_165
*810 FILLER_16_177
*811 FILLER_16_188
*812 FILLER_16_20
*813 FILLER_16_203
*814 FILLER_16_210
*815 FILLER_16_217
*816 FILLER_16_226
*817 FILLER_16_235
*818 FILLER_16_247
*819 FILLER_16_251
*820 FILLER_16_253
*821 FILLER_16_257
*822 FILLER_16_263
*823 FILLER_16_275
*824 FILLER_16_287
*825 FILLER_16_29
*826 FILLER_16_3
*827 FILLER_16_41
*828 FILLER_16_53
*829 FILLER_16_61
*830 FILLER_16_80
*831 FILLER_16_85
*832 FILLER_17_104
*833 FILLER_17_11
*834 FILLER_17_113
*835 FILLER_17_134
*836 FILLER_17_146
*837 FILLER_17_158
*838 FILLER_17_166
*839 FILLER_17_169
*840 FILLER_17_181
*841 FILLER_17_189
*842 FILLER_17_195
*843 FILLER_17_202
*844 FILLER_17_210
*845 FILLER_17_217
*846 FILLER_17_223
*847 FILLER_17_232
*848 FILLER_17_244
*849 FILLER_17_256
*850 FILLER_17_268
*851 FILLER_17_286
*852 FILLER_17_29
*853 FILLER_17_294
*854 FILLER_17_298
*855 FILLER_17_3
*856 FILLER_17_35
*857 FILLER_17_52
*858 FILLER_17_57
*859 FILLER_17_63
*860 FILLER_17_80
*861 FILLER_17_92
*862 FILLER_18_110
*863 FILLER_18_122
*864 FILLER_18_134
*865 FILLER_18_141
*866 FILLER_18_15
*867 FILLER_18_153
*868 FILLER_18_165
*869 FILLER_18_177
*870 FILLER_18_183
*871 FILLER_18_192
*872 FILLER_18_197
*873 FILLER_18_203
*874 FILLER_18_210
*875 FILLER_18_222
*876 FILLER_18_234
*877 FILLER_18_246
*878 FILLER_18_260
*879 FILLER_18_27
*880 FILLER_18_272
*881 FILLER_18_279
*882 FILLER_18_286
*883 FILLER_18_29
*884 FILLER_18_295
*885 FILLER_18_3
*886 FILLER_18_37
*887 FILLER_18_55
*888 FILLER_18_75
*889 FILLER_18_83
*890 FILLER_18_85
*891 FILLER_18_93
*892 FILLER_19_103
*893 FILLER_19_111
*894 FILLER_19_113
*895 FILLER_19_125
*896 FILLER_19_137
*897 FILLER_19_149
*898 FILLER_19_161
*899 FILLER_19_167
*900 FILLER_19_169
*901 FILLER_19_177
*902 FILLER_19_184
*903 FILLER_19_198
*904 FILLER_19_202
*905 FILLER_19_206
*906 FILLER_19_217
*907 FILLER_19_223
*908 FILLER_19_225
*909 FILLER_19_229
*910 FILLER_19_235
*911 FILLER_19_243
*912 FILLER_19_251
*913 FILLER_19_26
*914 FILLER_19_263
*915 FILLER_19_275
*916 FILLER_19_279
*917 FILLER_19_289
*918 FILLER_19_297
*919 FILLER_19_3
*920 FILLER_19_34
*921 FILLER_19_52
*922 FILLER_19_57
*923 FILLER_19_69
*924 FILLER_19_91
*925 FILLER_1_106
*926 FILLER_1_113
*927 FILLER_1_132
*928 FILLER_1_144
*929 FILLER_1_154
*930 FILLER_1_158
*931 FILLER_1_164
*932 FILLER_1_169
*933 FILLER_1_181
*934 FILLER_1_192
*935 FILLER_1_200
*936 FILLER_1_208
*937 FILLER_1_215
*938 FILLER_1_223
*939 FILLER_1_230
*940 FILLER_1_241
*941 FILLER_1_25
*942 FILLER_1_275
*943 FILLER_1_279
*944 FILLER_1_281
*945 FILLER_1_293
*946 FILLER_1_3
*947 FILLER_1_46
*948 FILLER_1_54
*949 FILLER_1_57
*950 FILLER_1_85
*951 FILLER_20_109
*952 FILLER_20_131
*953 FILLER_20_139
*954 FILLER_20_141
*955 FILLER_20_153
*956 FILLER_20_165
*957 FILLER_20_176
*958 FILLER_20_188
*959 FILLER_20_192
*960 FILLER_20_197
*961 FILLER_20_201
*962 FILLER_20_206
*963 FILLER_20_219
*964 FILLER_20_231
*965 FILLER_20_237
*966 FILLER_20_24
*967 FILLER_20_243
*968 FILLER_20_248
*969 FILLER_20_261
*970 FILLER_20_273
*971 FILLER_20_285
*972 FILLER_20_29
*973 FILLER_20_291
*974 FILLER_20_3
*975 FILLER_20_57
*976 FILLER_20_63
*977 FILLER_20_7
*978 FILLER_20_80
*979 FILLER_20_85
*980 FILLER_20_97
*981 FILLER_21_105
*982 FILLER_21_111
*983 FILLER_21_129
*984 FILLER_21_141
*985 FILLER_21_15
*986 FILLER_21_153
*987 FILLER_21_165
*988 FILLER_21_169
*989 FILLER_21_181
*990 FILLER_21_190
*991 FILLER_21_201
*992 FILLER_21_207
*993 FILLER_21_216
*994 FILLER_21_228
*995 FILLER_21_240
*996 FILLER_21_246
*997 FILLER_21_255
*998 FILLER_21_267
*999 FILLER_21_279
*1000 FILLER_21_281
*1001 FILLER_21_293
*1002 FILLER_21_3
*1003 FILLER_21_36
*1004 FILLER_21_48
*1005 FILLER_21_57
*1006 FILLER_21_69
*1007 FILLER_21_93
*1008 FILLER_22_101
*1009 FILLER_22_113
*1010 FILLER_22_125
*1011 FILLER_22_137
*1012 FILLER_22_141
*1013 FILLER_22_153
*1014 FILLER_22_161
*1015 FILLER_22_166
*1016 FILLER_22_175
*1017 FILLER_22_183
*1018 FILLER_22_19
*1019 FILLER_22_190
*1020 FILLER_22_205
*1021 FILLER_22_214
*1022 FILLER_22_220
*1023 FILLER_22_229
*1024 FILLER_22_241
*1025 FILLER_22_249
*1026 FILLER_22_253
*1027 FILLER_22_265
*1028 FILLER_22_27
*1029 FILLER_22_277
*1030 FILLER_22_289
*1031 FILLER_22_29
*1032 FILLER_22_297
*1033 FILLER_22_41
*1034 FILLER_22_60
*1035 FILLER_22_80
*1036 FILLER_23_108
*1037 FILLER_23_11
*1038 FILLER_23_113
*1039 FILLER_23_117
*1040 FILLER_23_134
*1041 FILLER_23_146
*1042 FILLER_23_154
*1043 FILLER_23_164
*1044 FILLER_23_179
*1045 FILLER_23_191
*1046 FILLER_23_198
*1047 FILLER_23_210
*1048 FILLER_23_222
*1049 FILLER_23_233
*1050 FILLER_23_245
*1051 FILLER_23_257
*1052 FILLER_23_269
*1053 FILLER_23_277
*1054 FILLER_23_281
*1055 FILLER_23_293
*1056 FILLER_23_3
*1057 FILLER_23_30
*1058 FILLER_23_42
*1059 FILLER_23_54
*1060 FILLER_23_57
*1061 FILLER_23_69
*1062 FILLER_23_88
*1063 FILLER_24_115
*1064 FILLER_24_135
*1065 FILLER_24_139
*1066 FILLER_24_141
*1067 FILLER_24_15
*1068 FILLER_24_153
*1069 FILLER_24_165
*1070 FILLER_24_174
*1071 FILLER_24_186
*1072 FILLER_24_194
*1073 FILLER_24_197
*1074 FILLER_24_205
*1075 FILLER_24_211
*1076 FILLER_24_230
*1077 FILLER_24_238
*1078 FILLER_24_247
*1079 FILLER_24_251
*1080 FILLER_24_253
*1081 FILLER_24_265
*1082 FILLER_24_27
*1083 FILLER_24_277
*1084 FILLER_24_284
*1085 FILLER_24_29
*1086 FILLER_24_295
*1087 FILLER_24_3
*1088 FILLER_24_48
*1089 FILLER_24_60
*1090 FILLER_24_79
*1091 FILLER_24_83
*1092 FILLER_24_85
*1093 FILLER_24_97
*1094 FILLER_25_107
*1095 FILLER_25_111
*1096 FILLER_25_113
*1097 FILLER_25_117
*1098 FILLER_25_134
*1099 FILLER_25_146
*1100 FILLER_25_153
*1101 FILLER_25_162
*1102 FILLER_25_169
*1103 FILLER_25_180
*1104 FILLER_25_19
*1105 FILLER_25_192
*1106 FILLER_25_198
*1107 FILLER_25_207
*1108 FILLER_25_219
*1109 FILLER_25_223
*1110 FILLER_25_225
*1111 FILLER_25_237
*1112 FILLER_25_245
*1113 FILLER_25_251
*1114 FILLER_25_260
*1115 FILLER_25_272
*1116 FILLER_25_281
*1117 FILLER_25_289
*1118 FILLER_25_295
*1119 FILLER_25_31
*1120 FILLER_25_35
*1121 FILLER_25_52
*1122 FILLER_25_57
*1123 FILLER_25_61
*1124 FILLER_25_78
*1125 FILLER_25_82
*1126 FILLER_25_90
*1127 FILLER_26_109
*1128 FILLER_26_121
*1129 FILLER_26_133
*1130 FILLER_26_139
*1131 FILLER_26_141
*1132 FILLER_26_15
*1133 FILLER_26_153
*1134 FILLER_26_160
*1135 FILLER_26_168
*1136 FILLER_26_174
*1137 FILLER_26_183
*1138 FILLER_26_195
*1139 FILLER_26_197
*1140 FILLER_26_209
*1141 FILLER_26_221
*1142 FILLER_26_229
*1143 FILLER_26_236
*1144 FILLER_26_248
*1145 FILLER_26_253
*1146 FILLER_26_259
*1147 FILLER_26_262
*1148 FILLER_26_269
*1149 FILLER_26_27
*1150 FILLER_26_281
*1151 FILLER_26_29
*1152 FILLER_26_293
*1153 FILLER_26_3
*1154 FILLER_26_41
*1155 FILLER_26_60
*1156 FILLER_26_72
*1157 FILLER_26_85
*1158 FILLER_26_97
*1159 FILLER_27_105
*1160 FILLER_27_111
*1161 FILLER_27_113
*1162 FILLER_27_125
*1163 FILLER_27_137
*1164 FILLER_27_149
*1165 FILLER_27_161
*1166 FILLER_27_167
*1167 FILLER_27_169
*1168 FILLER_27_185
*1169 FILLER_27_194
*1170 FILLER_27_20
*1171 FILLER_27_206
*1172 FILLER_27_210
*1173 FILLER_27_215
*1174 FILLER_27_223
*1175 FILLER_27_225
*1176 FILLER_27_229
*1177 FILLER_27_235
*1178 FILLER_27_24
*1179 FILLER_27_253
*1180 FILLER_27_265
*1181 FILLER_27_277
*1182 FILLER_27_286
*1183 FILLER_27_298
*1184 FILLER_27_3
*1185 FILLER_27_32
*1186 FILLER_27_37
*1187 FILLER_27_41
*1188 FILLER_27_45
*1189 FILLER_27_53
*1190 FILLER_27_57
*1191 FILLER_27_69
*1192 FILLER_27_8
*1193 FILLER_27_81
*1194 FILLER_27_93
*1195 FILLER_28_109
*1196 FILLER_28_11
*1197 FILLER_28_121
*1198 FILLER_28_133
*1199 FILLER_28_139
*1200 FILLER_28_141
*1201 FILLER_28_153
*1202 FILLER_28_169
*1203 FILLER_28_179
*1204 FILLER_28_188
*1205 FILLER_28_197
*1206 FILLER_28_20
*1207 FILLER_28_213
*1208 FILLER_28_222
*1209 FILLER_28_231
*1210 FILLER_28_239
*1211 FILLER_28_245
*1212 FILLER_28_251
*1213 FILLER_28_253
*1214 FILLER_28_265
*1215 FILLER_28_278
*1216 FILLER_28_29
*1217 FILLER_28_290
*1218 FILLER_28_298
*1219 FILLER_28_3
*1220 FILLER_28_41
*1221 FILLER_28_47
*1222 FILLER_28_51
*1223 FILLER_28_63
*1224 FILLER_28_75
*1225 FILLER_28_83
*1226 FILLER_28_85
*1227 FILLER_28_97
*1228 FILLER_29_104
*1229 FILLER_29_113
*1230 FILLER_29_125
*1231 FILLER_29_137
*1232 FILLER_29_14
*1233 FILLER_29_149
*1234 FILLER_29_153
*1235 FILLER_29_162
*1236 FILLER_29_169
*1237 FILLER_29_173
*1238 FILLER_29_179
*1239 FILLER_29_187
*1240 FILLER_29_199
*1241 FILLER_29_211
*1242 FILLER_29_216
*1243 FILLER_29_228
*1244 FILLER_29_240
*1245 FILLER_29_247
*1246 FILLER_29_254
*1247 FILLER_29_26
*1248 FILLER_29_273
*1249 FILLER_29_279
*1250 FILLER_29_281
*1251 FILLER_29_293
*1252 FILLER_29_3
*1253 FILLER_29_35
*1254 FILLER_29_43
*1255 FILLER_29_52
*1256 FILLER_29_57
*1257 FILLER_29_61
*1258 FILLER_29_68
*1259 FILLER_29_80
*1260 FILLER_29_9
*1261 FILLER_29_92
*1262 FILLER_2_109
*1263 FILLER_2_133
*1264 FILLER_2_139
*1265 FILLER_2_146
*1266 FILLER_2_152
*1267 FILLER_2_157
*1268 FILLER_2_164
*1269 FILLER_2_176
*1270 FILLER_2_188
*1271 FILLER_2_19
*1272 FILLER_2_201
*1273 FILLER_2_213
*1274 FILLER_2_225
*1275 FILLER_2_233
*1276 FILLER_2_248
*1277 FILLER_2_253
*1278 FILLER_2_265
*1279 FILLER_2_27
*1280 FILLER_2_277
*1281 FILLER_2_289
*1282 FILLER_2_29
*1283 FILLER_2_297
*1284 FILLER_2_41
*1285 FILLER_2_59
*1286 FILLER_2_80
*1287 FILLER_2_85
*1288 FILLER_30_109
*1289 FILLER_30_115
*1290 FILLER_30_127
*1291 FILLER_30_139
*1292 FILLER_30_141
*1293 FILLER_30_15
*1294 FILLER_30_153
*1295 FILLER_30_165
*1296 FILLER_30_169
*1297 FILLER_30_173
*1298 FILLER_30_185
*1299 FILLER_30_193
*1300 FILLER_30_197
*1301 FILLER_30_205
*1302 FILLER_30_217
*1303 FILLER_30_229
*1304 FILLER_30_241
*1305 FILLER_30_246
*1306 FILLER_30_253
*1307 FILLER_30_265
*1308 FILLER_30_27
*1309 FILLER_30_277
*1310 FILLER_30_289
*1311 FILLER_30_29
*1312 FILLER_30_297
*1313 FILLER_30_3
*1314 FILLER_30_41
*1315 FILLER_30_53
*1316 FILLER_30_65
*1317 FILLER_30_76
*1318 FILLER_30_85
*1319 FILLER_30_97
*1320 FILLER_31_101
*1321 FILLER_31_109
*1322 FILLER_31_119
*1323 FILLER_31_126
*1324 FILLER_31_134
*1325 FILLER_31_143
*1326 FILLER_31_147
*1327 FILLER_31_15
*1328 FILLER_31_151
*1329 FILLER_31_163
*1330 FILLER_31_167
*1331 FILLER_31_169
*1332 FILLER_31_181
*1333 FILLER_31_186
*1334 FILLER_31_198
*1335 FILLER_31_204
*1336 FILLER_31_213
*1337 FILLER_31_221
*1338 FILLER_31_230
*1339 FILLER_31_242
*1340 FILLER_31_247
*1341 FILLER_31_258
*1342 FILLER_31_272
*1343 FILLER_31_28
*1344 FILLER_31_281
*1345 FILLER_31_293
*1346 FILLER_31_3
*1347 FILLER_31_40
*1348 FILLER_31_52
*1349 FILLER_31_57
*1350 FILLER_31_63
*1351 FILLER_31_77
*1352 FILLER_31_89
*1353 FILLER_32_102
*1354 FILLER_32_114
*1355 FILLER_32_126
*1356 FILLER_32_136
*1357 FILLER_32_141
*1358 FILLER_32_145
*1359 FILLER_32_15
*1360 FILLER_32_156
*1361 FILLER_32_168
*1362 FILLER_32_180
*1363 FILLER_32_192
*1364 FILLER_32_204
*1365 FILLER_32_216
*1366 FILLER_32_223
*1367 FILLER_32_237
*1368 FILLER_32_245
*1369 FILLER_32_251
*1370 FILLER_32_259
*1371 FILLER_32_27
*1372 FILLER_32_271
*1373 FILLER_32_283
*1374 FILLER_32_29
*1375 FILLER_32_295
*1376 FILLER_32_3
*1377 FILLER_32_33
*1378 FILLER_32_44
*1379 FILLER_32_52
*1380 FILLER_32_64
*1381 FILLER_32_74
*1382 FILLER_32_82
*1383 FILLER_32_90
*1384 FILLER_33_105
*1385 FILLER_33_111
*1386 FILLER_33_123
*1387 FILLER_33_131
*1388 FILLER_33_139
*1389 FILLER_33_15
*1390 FILLER_33_151
*1391 FILLER_33_163
*1392 FILLER_33_167
*1393 FILLER_33_169
*1394 FILLER_33_181
*1395 FILLER_33_193
*1396 FILLER_33_205
*1397 FILLER_33_209
*1398 FILLER_33_220
*1399 FILLER_33_231
*1400 FILLER_33_24
*1401 FILLER_33_242
*1402 FILLER_33_248
*1403 FILLER_33_253
*1404 FILLER_33_269
*1405 FILLER_33_277
*1406 FILLER_33_281
*1407 FILLER_33_293
*1408 FILLER_33_3
*1409 FILLER_33_36
*1410 FILLER_33_48
*1411 FILLER_33_57
*1412 FILLER_33_69
*1413 FILLER_33_81
*1414 FILLER_33_93
*1415 FILLER_34_105
*1416 FILLER_34_117
*1417 FILLER_34_12
*1418 FILLER_34_131
*1419 FILLER_34_139
*1420 FILLER_34_141
*1421 FILLER_34_152
*1422 FILLER_34_164
*1423 FILLER_34_176
*1424 FILLER_34_188
*1425 FILLER_34_197
*1426 FILLER_34_209
*1427 FILLER_34_218
*1428 FILLER_34_230
*1429 FILLER_34_239
*1430 FILLER_34_24
*1431 FILLER_34_251
*1432 FILLER_34_253
*1433 FILLER_34_265
*1434 FILLER_34_277
*1435 FILLER_34_289
*1436 FILLER_34_29
*1437 FILLER_34_297
*1438 FILLER_34_3
*1439 FILLER_34_35
*1440 FILLER_34_47
*1441 FILLER_34_55
*1442 FILLER_34_62
*1443 FILLER_34_74
*1444 FILLER_34_82
*1445 FILLER_34_85
*1446 FILLER_35_104
*1447 FILLER_35_113
*1448 FILLER_35_121
*1449 FILLER_35_128
*1450 FILLER_35_140
*1451 FILLER_35_15
*1452 FILLER_35_150
*1453 FILLER_35_162
*1454 FILLER_35_173
*1455 FILLER_35_185
*1456 FILLER_35_19
*1457 FILLER_35_197
*1458 FILLER_35_203
*1459 FILLER_35_207
*1460 FILLER_35_219
*1461 FILLER_35_223
*1462 FILLER_35_225
*1463 FILLER_35_237
*1464 FILLER_35_262
*1465 FILLER_35_274
*1466 FILLER_35_28
*1467 FILLER_35_281
*1468 FILLER_35_293
*1469 FILLER_35_3
*1470 FILLER_35_39
*1471 FILLER_35_43
*1472 FILLER_35_47
*1473 FILLER_35_55
*1474 FILLER_35_57
*1475 FILLER_35_69
*1476 FILLER_35_83
*1477 FILLER_35_92
*1478 FILLER_36_100
*1479 FILLER_36_11
*1480 FILLER_36_112
*1481 FILLER_36_122
*1482 FILLER_36_134
*1483 FILLER_36_141
*1484 FILLER_36_157
*1485 FILLER_36_169
*1486 FILLER_36_181
*1487 FILLER_36_193
*1488 FILLER_36_197
*1489 FILLER_36_209
*1490 FILLER_36_221
*1491 FILLER_36_23
*1492 FILLER_36_233
*1493 FILLER_36_237
*1494 FILLER_36_242
*1495 FILLER_36_250
*1496 FILLER_36_253
*1497 FILLER_36_267
*1498 FILLER_36_27
*1499 FILLER_36_275
*1500 FILLER_36_283
*1501 FILLER_36_29
*1502 FILLER_36_295
*1503 FILLER_36_3
*1504 FILLER_36_37
*1505 FILLER_36_46
*1506 FILLER_36_58
*1507 FILLER_36_64
*1508 FILLER_36_72
*1509 FILLER_36_90
*1510 FILLER_36_94
*1511 FILLER_37_110
*1512 FILLER_37_121
*1513 FILLER_37_13
*1514 FILLER_37_133
*1515 FILLER_37_145
*1516 FILLER_37_157
*1517 FILLER_37_165
*1518 FILLER_37_169
*1519 FILLER_37_185
*1520 FILLER_37_197
*1521 FILLER_37_209
*1522 FILLER_37_221
*1523 FILLER_37_232
*1524 FILLER_37_239
*1525 FILLER_37_247
*1526 FILLER_37_25
*1527 FILLER_37_256
*1528 FILLER_37_275
*1529 FILLER_37_279
*1530 FILLER_37_281
*1531 FILLER_37_290
*1532 FILLER_37_298
*1533 FILLER_37_3
*1534 FILLER_37_31
*1535 FILLER_37_35
*1536 FILLER_37_47
*1537 FILLER_37_55
*1538 FILLER_37_57
*1539 FILLER_37_66
*1540 FILLER_37_78
*1541 FILLER_37_86
*1542 FILLER_37_98
*1543 FILLER_38_102
*1544 FILLER_38_114
*1545 FILLER_38_128
*1546 FILLER_38_141
*1547 FILLER_38_149
*1548 FILLER_38_156
*1549 FILLER_38_168
*1550 FILLER_38_17
*1551 FILLER_38_180
*1552 FILLER_38_192
*1553 FILLER_38_197
*1554 FILLER_38_209
*1555 FILLER_38_217
*1556 FILLER_38_222
*1557 FILLER_38_230
*1558 FILLER_38_24
*1559 FILLER_38_242
*1560 FILLER_38_250
*1561 FILLER_38_253
*1562 FILLER_38_257
*1563 FILLER_38_262
*1564 FILLER_38_274
*1565 FILLER_38_280
*1566 FILLER_38_292
*1567 FILLER_38_298
*1568 FILLER_38_3
*1569 FILLER_38_39
*1570 FILLER_38_45
*1571 FILLER_38_57
*1572 FILLER_38_63
*1573 FILLER_38_72
*1574 FILLER_38_94
*1575 FILLER_39_11
*1576 FILLER_39_111
*1577 FILLER_39_121
*1578 FILLER_39_130
*1579 FILLER_39_138
*1580 FILLER_39_150
*1581 FILLER_39_162
*1582 FILLER_39_169
*1583 FILLER_39_181
*1584 FILLER_39_193
*1585 FILLER_39_205
*1586 FILLER_39_217
*1587 FILLER_39_223
*1588 FILLER_39_225
*1589 FILLER_39_237
*1590 FILLER_39_24
*1591 FILLER_39_243
*1592 FILLER_39_249
*1593 FILLER_39_261
*1594 FILLER_39_273
*1595 FILLER_39_279
*1596 FILLER_39_281
*1597 FILLER_39_285
*1598 FILLER_39_292
*1599 FILLER_39_298
*1600 FILLER_39_3
*1601 FILLER_39_32
*1602 FILLER_39_43
*1603 FILLER_39_55
*1604 FILLER_39_62
*1605 FILLER_39_75
*1606 FILLER_39_87
*1607 FILLER_39_99
*1608 FILLER_3_105
*1609 FILLER_3_11
*1610 FILLER_3_111
*1611 FILLER_3_113
*1612 FILLER_3_130
*1613 FILLER_3_142
*1614 FILLER_3_15
*1615 FILLER_3_153
*1616 FILLER_3_164
*1617 FILLER_3_177
*1618 FILLER_3_185
*1619 FILLER_3_190
*1620 FILLER_3_201
*1621 FILLER_3_208
*1622 FILLER_3_220
*1623 FILLER_3_225
*1624 FILLER_3_233
*1625 FILLER_3_245
*1626 FILLER_3_257
*1627 FILLER_3_269
*1628 FILLER_3_277
*1629 FILLER_3_281
*1630 FILLER_3_293
*1631 FILLER_3_3
*1632 FILLER_3_36
*1633 FILLER_3_48
*1634 FILLER_3_57
*1635 FILLER_3_69
*1636 FILLER_3_93
*1637 FILLER_40_107
*1638 FILLER_40_113
*1639 FILLER_40_121
*1640 FILLER_40_128
*1641 FILLER_40_13
*1642 FILLER_40_146
*1643 FILLER_40_158
*1644 FILLER_40_17
*1645 FILLER_40_170
*1646 FILLER_40_182
*1647 FILLER_40_194
*1648 FILLER_40_197
*1649 FILLER_40_209
*1650 FILLER_40_222
*1651 FILLER_40_23
*1652 FILLER_40_234
*1653 FILLER_40_243
*1654 FILLER_40_251
*1655 FILLER_40_253
*1656 FILLER_40_267
*1657 FILLER_40_27
*1658 FILLER_40_279
*1659 FILLER_40_29
*1660 FILLER_40_291
*1661 FILLER_40_3
*1662 FILLER_40_37
*1663 FILLER_40_45
*1664 FILLER_40_57
*1665 FILLER_40_69
*1666 FILLER_40_78
*1667 FILLER_40_85
*1668 FILLER_40_95
*1669 FILLER_41_105
*1670 FILLER_41_111
*1671 FILLER_41_113
*1672 FILLER_41_135
*1673 FILLER_41_14
*1674 FILLER_41_147
*1675 FILLER_41_159
*1676 FILLER_41_167
*1677 FILLER_41_174
*1678 FILLER_41_186
*1679 FILLER_41_194
*1680 FILLER_41_20
*1681 FILLER_41_200
*1682 FILLER_41_212
*1683 FILLER_41_238
*1684 FILLER_41_249
*1685 FILLER_41_261
*1686 FILLER_41_273
*1687 FILLER_41_279
*1688 FILLER_41_281
*1689 FILLER_41_288
*1690 FILLER_41_296
*1691 FILLER_41_3
*1692 FILLER_41_30
*1693 FILLER_41_42
*1694 FILLER_41_54
*1695 FILLER_41_57
*1696 FILLER_41_69
*1697 FILLER_41_81
*1698 FILLER_41_93