*SPEF "ieee 1481-1999"
*DESIGN "adamgreig_tt02_gps_ca_prn"
*DATE "11:11:11 Fri 11 11, 1111"
*VENDOR "OpenRCX"
*PROGRAM "Parallel Extraction"
*VERSION "1.0"
*DESIGN_FLOW "NAME_SCOPE LOCAL" "PIN_CAP NONE"
*DIVIDER /
*DELIMITER :
*BUS_DELIMITER []
*T_UNIT 1 NS
*C_UNIT 1 PF
*R_UNIT 1 OHM
*L_UNIT 1 HENRY

*NAME_MAP
*1 io_in[0]
*2 io_in[1]
*3 io_in[2]
*4 io_in[3]
*5 io_in[4]
*6 io_in[5]
*7 io_in[6]
*8 io_in[7]
*9 io_out[0]
*10 io_out[1]
*11 io_out[2]
*12 net7
*13 net8
*14 net9
*15 net10
*16 net11
*19 _000_
*20 _001_
*21 _002_
*22 _003_
*23 _004_
*24 _005_
*25 _006_
*26 _007_
*27 _008_
*28 _009_
*29 _010_
*30 _011_
*31 _012_
*32 _013_
*33 _014_
*34 _015_
*35 _016_
*36 _017_
*37 _018_
*38 _019_
*39 _020_
*40 _021_
*41 _022_
*42 _023_
*43 _024_
*44 _025_
*45 _026_
*46 _027_
*47 _028_
*48 _029_
*49 _030_
*50 _031_
*51 _032_
*52 _033_
*53 _034_
*54 _035_
*55 _036_
*56 _037_
*57 _038_
*58 _039_
*59 _040_
*60 _041_
*61 _042_
*62 _043_
*63 _044_
*64 _045_
*65 _046_
*66 _047_
*67 _048_
*68 _049_
*69 _050_
*70 _051_
*71 _052_
*72 _053_
*73 _054_
*74 _055_
*75 _056_
*76 _057_
*77 _058_
*78 _059_
*79 _060_
*80 _061_
*81 _062_
*82 _063_
*83 _064_
*84 _065_
*85 _066_
*86 _067_
*87 _068_
*88 _069_
*89 _070_
*90 _071_
*91 _072_
*92 _073_
*93 _074_
*94 _075_
*95 _076_
*96 _077_
*97 _078_
*98 _079_
*99 _080_
*100 _081_
*101 _082_
*102 _083_
*103 _084_
*104 _085_
*105 _086_
*106 _087_
*107 _088_
*108 _089_
*109 _090_
*110 _091_
*111 _092_
*112 _093_
*113 _094_
*114 _095_
*115 _096_
*116 _097_
*117 _098_
*118 _099_
*119 _100_
*120 _101_
*121 _102_
*122 _103_
*123 _104_
*124 _105_
*125 _106_
*126 _107_
*127 _108_
*128 _109_
*129 _110_
*130 _111_
*131 _112_
*132 _113_
*133 _114_
*134 _115_
*135 _116_
*136 _117_
*137 _118_
*138 _119_
*139 _120_
*140 _121_
*141 _122_
*142 _123_
*143 _124_
*144 _125_
*145 _126_
*146 _127_
*147 _128_
*148 _129_
*149 _130_
*150 _131_
*151 _132_
*152 _133_
*153 _134_
*154 _135_
*155 _136_
*156 _137_
*157 _138_
*158 _139_
*159 _140_
*160 _141_
*161 _142_
*162 _143_
*163 _144_
*164 _145_
*165 _146_
*166 _147_
*167 _148_
*168 _149_
*169 _150_
*170 _151_
*171 _152_
*172 _153_
*173 _154_
*174 _155_
*175 _156_
*176 _157_
*177 _158_
*178 _159_
*179 _160_
*180 _161_
*181 _162_
*182 _163_
*183 _164_
*184 _165_
*185 _166_
*186 _167_
*187 _168_
*188 _169_
*189 _170_
*190 _171_
*191 _172_
*192 _173_
*193 _174_
*194 _175_
*195 _176_
*196 _177_
*197 _178_
*198 _179_
*199 _180_
*200 _181_
*201 clknet_0_io_in[0]
*202 clknet_1_0__leaf_io_in[0]
*203 clknet_1_1__leaf_io_in[0]
*204 g1\[0\]
*205 g1\[1\]
*206 g1\[2\]
*207 g1\[3\]
*208 g1\[4\]
*209 g1\[5\]
*210 g1\[6\]
*211 g1\[7\]
*212 g1\[8\]
*213 g1\[9\]
*214 g2\[0\]
*215 g2\[1\]
*216 g2\[2\]
*217 g2\[3\]
*218 g2\[4\]
*219 g2\[5\]
*220 g2\[6\]
*221 g2\[7\]
*222 g2\[8\]
*223 g2\[9\]
*224 net1
*225 net2
*226 net3
*227 net4
*228 net5
*229 net6
*230 FILLER_0_109
*231 FILLER_0_113
*232 FILLER_0_125
*233 FILLER_0_137
*234 FILLER_0_141
*235 FILLER_0_153
*236 FILLER_0_165
*237 FILLER_0_169
*238 FILLER_0_181
*239 FILLER_0_193
*240 FILLER_0_197
*241 FILLER_0_20
*242 FILLER_0_209
*243 FILLER_0_221
*244 FILLER_0_225
*245 FILLER_0_237
*246 FILLER_0_249
*247 FILLER_0_253
*248 FILLER_0_265
*249 FILLER_0_277
*250 FILLER_0_281
*251 FILLER_0_29
*252 FILLER_0_293
*253 FILLER_0_3
*254 FILLER_0_35
*255 FILLER_0_52
*256 FILLER_0_73
*257 FILLER_0_81
*258 FILLER_0_85
*259 FILLER_0_97
*260 FILLER_10_105
*261 FILLER_10_117
*262 FILLER_10_129
*263 FILLER_10_137
*264 FILLER_10_141
*265 FILLER_10_153
*266 FILLER_10_165
*267 FILLER_10_177
*268 FILLER_10_189
*269 FILLER_10_195
*270 FILLER_10_197
*271 FILLER_10_209
*272 FILLER_10_22
*273 FILLER_10_221
*274 FILLER_10_233
*275 FILLER_10_245
*276 FILLER_10_251
*277 FILLER_10_253
*278 FILLER_10_265
*279 FILLER_10_277
*280 FILLER_10_289
*281 FILLER_10_297
*282 FILLER_10_3
*283 FILLER_10_37
*284 FILLER_10_41
*285 FILLER_10_58
*286 FILLER_10_66
*287 FILLER_10_76
*288 FILLER_10_8
*289 FILLER_10_85
*290 FILLER_10_93
*291 FILLER_11_110
*292 FILLER_11_113
*293 FILLER_11_121
*294 FILLER_11_125
*295 FILLER_11_137
*296 FILLER_11_149
*297 FILLER_11_15
*298 FILLER_11_161
*299 FILLER_11_167
*300 FILLER_11_169
*301 FILLER_11_181
*302 FILLER_11_193
*303 FILLER_11_205
*304 FILLER_11_217
*305 FILLER_11_223
*306 FILLER_11_225
*307 FILLER_11_237
*308 FILLER_11_249
*309 FILLER_11_261
*310 FILLER_11_27
*311 FILLER_11_273
*312 FILLER_11_279
*313 FILLER_11_281
*314 FILLER_11_293
*315 FILLER_11_3
*316 FILLER_11_35
*317 FILLER_11_49
*318 FILLER_11_55
*319 FILLER_11_62
*320 FILLER_11_66
*321 FILLER_11_77
*322 FILLER_11_89
*323 FILLER_11_98
*324 FILLER_12_106
*325 FILLER_12_118
*326 FILLER_12_130
*327 FILLER_12_136
*328 FILLER_12_141
*329 FILLER_12_15
*330 FILLER_12_155
*331 FILLER_12_167
*332 FILLER_12_179
*333 FILLER_12_191
*334 FILLER_12_195
*335 FILLER_12_197
*336 FILLER_12_209
*337 FILLER_12_221
*338 FILLER_12_233
*339 FILLER_12_24
*340 FILLER_12_245
*341 FILLER_12_251
*342 FILLER_12_253
*343 FILLER_12_265
*344 FILLER_12_277
*345 FILLER_12_289
*346 FILLER_12_29
*347 FILLER_12_297
*348 FILLER_12_3
*349 FILLER_12_38
*350 FILLER_12_52
*351 FILLER_12_66
*352 FILLER_12_70
*353 FILLER_12_78
*354 FILLER_12_94
*355 FILLER_13_100
*356 FILLER_13_106
*357 FILLER_13_113
*358 FILLER_13_125
*359 FILLER_13_137
*360 FILLER_13_143
*361 FILLER_13_150
*362 FILLER_13_16
*363 FILLER_13_162
*364 FILLER_13_169
*365 FILLER_13_181
*366 FILLER_13_193
*367 FILLER_13_20
*368 FILLER_13_205
*369 FILLER_13_217
*370 FILLER_13_223
*371 FILLER_13_225
*372 FILLER_13_237
*373 FILLER_13_249
*374 FILLER_13_25
*375 FILLER_13_261
*376 FILLER_13_273
*377 FILLER_13_279
*378 FILLER_13_281
*379 FILLER_13_293
*380 FILLER_13_3
*381 FILLER_13_39
*382 FILLER_13_51
*383 FILLER_13_55
*384 FILLER_13_62
*385 FILLER_13_66
*386 FILLER_13_75
*387 FILLER_13_83
*388 FILLER_13_92
*389 FILLER_14_107
*390 FILLER_14_119
*391 FILLER_14_13
*392 FILLER_14_131
*393 FILLER_14_139
*394 FILLER_14_141
*395 FILLER_14_153
*396 FILLER_14_165
*397 FILLER_14_177
*398 FILLER_14_189
*399 FILLER_14_195
*400 FILLER_14_197
*401 FILLER_14_209
*402 FILLER_14_221
*403 FILLER_14_233
*404 FILLER_14_24
*405 FILLER_14_245
*406 FILLER_14_251
*407 FILLER_14_253
*408 FILLER_14_265
*409 FILLER_14_277
*410 FILLER_14_289
*411 FILLER_14_297
*412 FILLER_14_32
*413 FILLER_14_44
*414 FILLER_14_55
*415 FILLER_14_6
*416 FILLER_14_67
*417 FILLER_14_79
*418 FILLER_14_83
*419 FILLER_14_90
*420 FILLER_15_105
*421 FILLER_15_111
*422 FILLER_15_113
*423 FILLER_15_125
*424 FILLER_15_133
*425 FILLER_15_14
*426 FILLER_15_144
*427 FILLER_15_156
*428 FILLER_15_173
*429 FILLER_15_185
*430 FILLER_15_197
*431 FILLER_15_209
*432 FILLER_15_221
*433 FILLER_15_225
*434 FILLER_15_23
*435 FILLER_15_237
*436 FILLER_15_249
*437 FILLER_15_261
*438 FILLER_15_273
*439 FILLER_15_279
*440 FILLER_15_281
*441 FILLER_15_293
*442 FILLER_15_3
*443 FILLER_15_31
*444 FILLER_15_38
*445 FILLER_15_50
*446 FILLER_15_61
*447 FILLER_15_71
*448 FILLER_15_8
*449 FILLER_15_83
*450 FILLER_15_95
*451 FILLER_16_105
*452 FILLER_16_117
*453 FILLER_16_129
*454 FILLER_16_137
*455 FILLER_16_14
*456 FILLER_16_141
*457 FILLER_16_153
*458 FILLER_16_162
*459 FILLER_16_175
*460 FILLER_16_187
*461 FILLER_16_195
*462 FILLER_16_197
*463 FILLER_16_209
*464 FILLER_16_21
*465 FILLER_16_221
*466 FILLER_16_233
*467 FILLER_16_245
*468 FILLER_16_251
*469 FILLER_16_253
*470 FILLER_16_265
*471 FILLER_16_27
*472 FILLER_16_277
*473 FILLER_16_289
*474 FILLER_16_297
*475 FILLER_16_3
*476 FILLER_16_32
*477 FILLER_16_39
*478 FILLER_16_51
*479 FILLER_16_63
*480 FILLER_16_70
*481 FILLER_16_82
*482 FILLER_16_93
*483 FILLER_17_104
*484 FILLER_17_11
*485 FILLER_17_116
*486 FILLER_17_127
*487 FILLER_17_139
*488 FILLER_17_151
*489 FILLER_17_163
*490 FILLER_17_167
*491 FILLER_17_169
*492 FILLER_17_181
*493 FILLER_17_193
*494 FILLER_17_205
*495 FILLER_17_217
*496 FILLER_17_22
*497 FILLER_17_223
*498 FILLER_17_225
*499 FILLER_17_237
*500 FILLER_17_249
*501 FILLER_17_261
*502 FILLER_17_273
*503 FILLER_17_279
*504 FILLER_17_281
*505 FILLER_17_29
*506 FILLER_17_293
*507 FILLER_17_3
*508 FILLER_17_42
*509 FILLER_17_54
*510 FILLER_17_57
*511 FILLER_17_69
*512 FILLER_17_81
*513 FILLER_17_93
*514 FILLER_17_97
*515 FILLER_18_110
*516 FILLER_18_122
*517 FILLER_18_134
*518 FILLER_18_14
*519 FILLER_18_141
*520 FILLER_18_162
*521 FILLER_18_174
*522 FILLER_18_186
*523 FILLER_18_194
*524 FILLER_18_197
*525 FILLER_18_20
*526 FILLER_18_209
*527 FILLER_18_221
*528 FILLER_18_233
*529 FILLER_18_245
*530 FILLER_18_251
*531 FILLER_18_253
*532 FILLER_18_265
*533 FILLER_18_277
*534 FILLER_18_289
*535 FILLER_18_29
*536 FILLER_18_297
*537 FILLER_18_37
*538 FILLER_18_49
*539 FILLER_18_6
*540 FILLER_18_61
*541 FILLER_18_73
*542 FILLER_18_81
*543 FILLER_18_85
*544 FILLER_18_89
*545 FILLER_18_98
*546 FILLER_19_105
*547 FILLER_19_111
*548 FILLER_19_113
*549 FILLER_19_125
*550 FILLER_19_133
*551 FILLER_19_140
*552 FILLER_19_151
*553 FILLER_19_163
*554 FILLER_19_167
*555 FILLER_19_169
*556 FILLER_19_18
*557 FILLER_19_181
*558 FILLER_19_193
*559 FILLER_19_205
*560 FILLER_19_217
*561 FILLER_19_223
*562 FILLER_19_225
*563 FILLER_19_237
*564 FILLER_19_249
*565 FILLER_19_261
*566 FILLER_19_27
*567 FILLER_19_273
*568 FILLER_19_279
*569 FILLER_19_281
*570 FILLER_19_293
*571 FILLER_19_3
*572 FILLER_19_41
*573 FILLER_19_49
*574 FILLER_19_55
*575 FILLER_19_57
*576 FILLER_19_65
*577 FILLER_19_7
*578 FILLER_19_73
*579 FILLER_19_81
*580 FILLER_19_93
*581 FILLER_1_107
*582 FILLER_1_11
*583 FILLER_1_111
*584 FILLER_1_113
*585 FILLER_1_125
*586 FILLER_1_137
*587 FILLER_1_149
*588 FILLER_1_161
*589 FILLER_1_167
*590 FILLER_1_169
*591 FILLER_1_181
*592 FILLER_1_193
*593 FILLER_1_205
*594 FILLER_1_217
*595 FILLER_1_223
*596 FILLER_1_225
*597 FILLER_1_237
*598 FILLER_1_249
*599 FILLER_1_261
*600 FILLER_1_273
*601 FILLER_1_279
*602 FILLER_1_281
*603 FILLER_1_293
*604 FILLER_1_3
*605 FILLER_1_31
*606 FILLER_1_52
*607 FILLER_1_73
*608 FILLER_1_93
*609 FILLER_20_116
*610 FILLER_20_128
*611 FILLER_20_141
*612 FILLER_20_153
*613 FILLER_20_165
*614 FILLER_20_177
*615 FILLER_20_189
*616 FILLER_20_195
*617 FILLER_20_197
*618 FILLER_20_205
*619 FILLER_20_210
*620 FILLER_20_222
*621 FILLER_20_23
*622 FILLER_20_234
*623 FILLER_20_246
*624 FILLER_20_253
*625 FILLER_20_265
*626 FILLER_20_27
*627 FILLER_20_277
*628 FILLER_20_289
*629 FILLER_20_29
*630 FILLER_20_297
*631 FILLER_20_3
*632 FILLER_20_37
*633 FILLER_20_44
*634 FILLER_20_56
*635 FILLER_20_68
*636 FILLER_20_80
*637 FILLER_20_85
*638 FILLER_20_9
*639 FILLER_20_97
*640 FILLER_21_104
*641 FILLER_21_113
*642 FILLER_21_125
*643 FILLER_21_132
*644 FILLER_21_140
*645 FILLER_21_149
*646 FILLER_21_161
*647 FILLER_21_167
*648 FILLER_21_169
*649 FILLER_21_18
*650 FILLER_21_181
*651 FILLER_21_193
*652 FILLER_21_205
*653 FILLER_21_217
*654 FILLER_21_223
*655 FILLER_21_225
*656 FILLER_21_237
*657 FILLER_21_249
*658 FILLER_21_26
*659 FILLER_21_261
*660 FILLER_21_273
*661 FILLER_21_279
*662 FILLER_21_281
*663 FILLER_21_293
*664 FILLER_21_3
*665 FILLER_21_33
*666 FILLER_21_45
*667 FILLER_21_53
*668 FILLER_21_57
*669 FILLER_21_69
*670 FILLER_21_81
*671 FILLER_21_9
*672 FILLER_21_93
*673 FILLER_22_109
*674 FILLER_22_113
*675 FILLER_22_121
*676 FILLER_22_13
*677 FILLER_22_133
*678 FILLER_22_139
*679 FILLER_22_150
*680 FILLER_22_162
*681 FILLER_22_174
*682 FILLER_22_186
*683 FILLER_22_194
*684 FILLER_22_197
*685 FILLER_22_20
*686 FILLER_22_203
*687 FILLER_22_215
*688 FILLER_22_227
*689 FILLER_22_239
*690 FILLER_22_251
*691 FILLER_22_253
*692 FILLER_22_265
*693 FILLER_22_277
*694 FILLER_22_289
*695 FILLER_22_297
*696 FILLER_22_3
*697 FILLER_22_35
*698 FILLER_22_44
*699 FILLER_22_56
*700 FILLER_22_68
*701 FILLER_22_7
*702 FILLER_22_80
*703 FILLER_22_85
*704 FILLER_22_93
*705 FILLER_22_97
*706 FILLER_23_101
*707 FILLER_23_109
*708 FILLER_23_11
*709 FILLER_23_113
*710 FILLER_23_129
*711 FILLER_23_138
*712 FILLER_23_150
*713 FILLER_23_162
*714 FILLER_23_169
*715 FILLER_23_18
*716 FILLER_23_181
*717 FILLER_23_193
*718 FILLER_23_205
*719 FILLER_23_217
*720 FILLER_23_223
*721 FILLER_23_225
*722 FILLER_23_237
*723 FILLER_23_249
*724 FILLER_23_261
*725 FILLER_23_273
*726 FILLER_23_279
*727 FILLER_23_281
*728 FILLER_23_293
*729 FILLER_23_3
*730 FILLER_23_30
*731 FILLER_23_42
*732 FILLER_23_54
*733 FILLER_23_64
*734 FILLER_23_7
*735 FILLER_23_72
*736 FILLER_23_83
*737 FILLER_23_95
*738 FILLER_24_109
*739 FILLER_24_121
*740 FILLER_24_13
*741 FILLER_24_133
*742 FILLER_24_139
*743 FILLER_24_141
*744 FILLER_24_146
*745 FILLER_24_158
*746 FILLER_24_17
*747 FILLER_24_170
*748 FILLER_24_182
*749 FILLER_24_194
*750 FILLER_24_197
*751 FILLER_24_209
*752 FILLER_24_221
*753 FILLER_24_233
*754 FILLER_24_245
*755 FILLER_24_25
*756 FILLER_24_251
*757 FILLER_24_253
*758 FILLER_24_265
*759 FILLER_24_277
*760 FILLER_24_289
*761 FILLER_24_29
*762 FILLER_24_297
*763 FILLER_24_3
*764 FILLER_24_44
*765 FILLER_24_56
*766 FILLER_24_68
*767 FILLER_24_80
*768 FILLER_24_9
*769 FILLER_24_97
*770 FILLER_25_109
*771 FILLER_25_113
*772 FILLER_25_125
*773 FILLER_25_137
*774 FILLER_25_149
*775 FILLER_25_161
*776 FILLER_25_167
*777 FILLER_25_169
*778 FILLER_25_18
*779 FILLER_25_181
*780 FILLER_25_193
*781 FILLER_25_199
*782 FILLER_25_211
*783 FILLER_25_223
*784 FILLER_25_225
*785 FILLER_25_237
*786 FILLER_25_249
*787 FILLER_25_25
*788 FILLER_25_261
*789 FILLER_25_273
*790 FILLER_25_279
*791 FILLER_25_281
*792 FILLER_25_293
*793 FILLER_25_37
*794 FILLER_25_49
*795 FILLER_25_55
*796 FILLER_25_57
*797 FILLER_25_6
*798 FILLER_25_65
*799 FILLER_25_73
*800 FILLER_25_85
*801 FILLER_25_97
*802 FILLER_26_109
*803 FILLER_26_11
*804 FILLER_26_121
*805 FILLER_26_125
*806 FILLER_26_133
*807 FILLER_26_139
*808 FILLER_26_141
*809 FILLER_26_153
*810 FILLER_26_165
*811 FILLER_26_173
*812 FILLER_26_18
*813 FILLER_26_182
*814 FILLER_26_194
*815 FILLER_26_197
*816 FILLER_26_209
*817 FILLER_26_221
*818 FILLER_26_233
*819 FILLER_26_245
*820 FILLER_26_251
*821 FILLER_26_253
*822 FILLER_26_26
*823 FILLER_26_265
*824 FILLER_26_277
*825 FILLER_26_289
*826 FILLER_26_29
*827 FILLER_26_297
*828 FILLER_26_3
*829 FILLER_26_40
*830 FILLER_26_52
*831 FILLER_26_64
*832 FILLER_26_70
*833 FILLER_26_77
*834 FILLER_26_83
*835 FILLER_26_85
*836 FILLER_26_97
*837 FILLER_27_108
*838 FILLER_27_113
*839 FILLER_27_125
*840 FILLER_27_137
*841 FILLER_27_149
*842 FILLER_27_15
*843 FILLER_27_161
*844 FILLER_27_167
*845 FILLER_27_169
*846 FILLER_27_181
*847 FILLER_27_193
*848 FILLER_27_205
*849 FILLER_27_217
*850 FILLER_27_223
*851 FILLER_27_225
*852 FILLER_27_237
*853 FILLER_27_24
*854 FILLER_27_249
*855 FILLER_27_261
*856 FILLER_27_273
*857 FILLER_27_279
*858 FILLER_27_281
*859 FILLER_27_293
*860 FILLER_27_3
*861 FILLER_27_30
*862 FILLER_27_35
*863 FILLER_27_43
*864 FILLER_27_51
*865 FILLER_27_55
*866 FILLER_27_57
*867 FILLER_27_65
*868 FILLER_27_72
*869 FILLER_27_84
*870 FILLER_27_96
*871 FILLER_28_109
*872 FILLER_28_121
*873 FILLER_28_133
*874 FILLER_28_139
*875 FILLER_28_141
*876 FILLER_28_153
*877 FILLER_28_16
*878 FILLER_28_165
*879 FILLER_28_177
*880 FILLER_28_189
*881 FILLER_28_195
*882 FILLER_28_197
*883 FILLER_28_209
*884 FILLER_28_21
*885 FILLER_28_221
*886 FILLER_28_233
*887 FILLER_28_245
*888 FILLER_28_251
*889 FILLER_28_253
*890 FILLER_28_265
*891 FILLER_28_27
*892 FILLER_28_277
*893 FILLER_28_289
*894 FILLER_28_29
*895 FILLER_28_297
*896 FILLER_28_3
*897 FILLER_28_41
*898 FILLER_28_53
*899 FILLER_28_65
*900 FILLER_28_77
*901 FILLER_28_8
*902 FILLER_28_83
*903 FILLER_28_85
*904 FILLER_28_97
*905 FILLER_29_11
*906 FILLER_29_111
*907 FILLER_29_113
*908 FILLER_29_125
*909 FILLER_29_137
*910 FILLER_29_149
*911 FILLER_29_161
*912 FILLER_29_167
*913 FILLER_29_169
*914 FILLER_29_181
*915 FILLER_29_193
*916 FILLER_29_205
*917 FILLER_29_217
*918 FILLER_29_22
*919 FILLER_29_223
*920 FILLER_29_225
*921 FILLER_29_237
*922 FILLER_29_249
*923 FILLER_29_261
*924 FILLER_29_273
*925 FILLER_29_279
*926 FILLER_29_281
*927 FILLER_29_293
*928 FILLER_29_3
*929 FILLER_29_34
*930 FILLER_29_46
*931 FILLER_29_54
*932 FILLER_29_57
*933 FILLER_29_69
*934 FILLER_29_75
*935 FILLER_29_87
*936 FILLER_29_99
*937 FILLER_2_109
*938 FILLER_2_121
*939 FILLER_2_133
*940 FILLER_2_139
*941 FILLER_2_141
*942 FILLER_2_153
*943 FILLER_2_165
*944 FILLER_2_177
*945 FILLER_2_189
*946 FILLER_2_195
*947 FILLER_2_197
*948 FILLER_2_20
*949 FILLER_2_209
*950 FILLER_2_221
*951 FILLER_2_233
*952 FILLER_2_245
*953 FILLER_2_251
*954 FILLER_2_253
*955 FILLER_2_265
*956 FILLER_2_277
*957 FILLER_2_289
*958 FILLER_2_29
*959 FILLER_2_297
*960 FILLER_2_41
*961 FILLER_2_65
*962 FILLER_2_77
*963 FILLER_2_83
*964 FILLER_2_85
*965 FILLER_2_97
*966 FILLER_30_103
*967 FILLER_30_113
*968 FILLER_30_120
*969 FILLER_30_132
*970 FILLER_30_141
*971 FILLER_30_15
*972 FILLER_30_153
*973 FILLER_30_165
*974 FILLER_30_177
*975 FILLER_30_189
*976 FILLER_30_195
*977 FILLER_30_197
*978 FILLER_30_209
*979 FILLER_30_221
*980 FILLER_30_233
*981 FILLER_30_245
*982 FILLER_30_251
*983 FILLER_30_253
*984 FILLER_30_265
*985 FILLER_30_27
*986 FILLER_30_277
*987 FILLER_30_289
*988 FILLER_30_29
*989 FILLER_30_297
*990 FILLER_30_3
*991 FILLER_30_41
*992 FILLER_30_53
*993 FILLER_30_65
*994 FILLER_30_80
*995 FILLER_30_93
*996 FILLER_31_104
*997 FILLER_31_118
*998 FILLER_31_130
*999 FILLER_31_138
*1000 FILLER_31_142
*1001 FILLER_31_15
*1002 FILLER_31_154
*1003 FILLER_31_159
*1004 FILLER_31_167
*1005 FILLER_31_169
*1006 FILLER_31_181
*1007 FILLER_31_193
*1008 FILLER_31_205
*1009 FILLER_31_21
*1010 FILLER_31_217
*1011 FILLER_31_223
*1012 FILLER_31_225
*1013 FILLER_31_237
*1014 FILLER_31_249
*1015 FILLER_31_261
*1016 FILLER_31_273
*1017 FILLER_31_279
*1018 FILLER_31_281
*1019 FILLER_31_29
*1020 FILLER_31_293
*1021 FILLER_31_3
*1022 FILLER_31_41
*1023 FILLER_31_53
*1024 FILLER_31_57
*1025 FILLER_31_68
*1026 FILLER_31_76
*1027 FILLER_31_80
*1028 FILLER_31_92
*1029 FILLER_32_107
*1030 FILLER_32_115
*1031 FILLER_32_121
*1032 FILLER_32_133
*1033 FILLER_32_139
*1034 FILLER_32_141
*1035 FILLER_32_15
*1036 FILLER_32_153
*1037 FILLER_32_161
*1038 FILLER_32_168
*1039 FILLER_32_180
*1040 FILLER_32_192
*1041 FILLER_32_197
*1042 FILLER_32_205
*1043 FILLER_32_213
*1044 FILLER_32_225
*1045 FILLER_32_237
*1046 FILLER_32_249
*1047 FILLER_32_253
*1048 FILLER_32_265
*1049 FILLER_32_27
*1050 FILLER_32_277
*1051 FILLER_32_289
*1052 FILLER_32_29
*1053 FILLER_32_297
*1054 FILLER_32_3
*1055 FILLER_32_41
*1056 FILLER_32_53
*1057 FILLER_32_65
*1058 FILLER_32_77
*1059 FILLER_32_83
*1060 FILLER_32_95
*1061 FILLER_33_104
*1062 FILLER_33_113
*1063 FILLER_33_125
*1064 FILLER_33_137
*1065 FILLER_33_149
*1066 FILLER_33_15
*1067 FILLER_33_161
*1068 FILLER_33_167
*1069 FILLER_33_169
*1070 FILLER_33_181
*1071 FILLER_33_193
*1072 FILLER_33_205
*1073 FILLER_33_217
*1074 FILLER_33_223
*1075 FILLER_33_225
*1076 FILLER_33_237
*1077 FILLER_33_249
*1078 FILLER_33_261
*1079 FILLER_33_27
*1080 FILLER_33_273
*1081 FILLER_33_279
*1082 FILLER_33_281
*1083 FILLER_33_293
*1084 FILLER_33_3
*1085 FILLER_33_39
*1086 FILLER_33_51
*1087 FILLER_33_55
*1088 FILLER_33_57
*1089 FILLER_33_72
*1090 FILLER_33_80
*1091 FILLER_33_92
*1092 FILLER_34_109
*1093 FILLER_34_121
*1094 FILLER_34_133
*1095 FILLER_34_139
*1096 FILLER_34_141
*1097 FILLER_34_15
*1098 FILLER_34_153
*1099 FILLER_34_165
*1100 FILLER_34_177
*1101 FILLER_34_189
*1102 FILLER_34_195
*1103 FILLER_34_197
*1104 FILLER_34_209
*1105 FILLER_34_221
*1106 FILLER_34_233
*1107 FILLER_34_245
*1108 FILLER_34_251
*1109 FILLER_34_253
*1110 FILLER_34_265
*1111 FILLER_34_27
*1112 FILLER_34_277
*1113 FILLER_34_289
*1114 FILLER_34_29
*1115 FILLER_34_297
*1116 FILLER_34_3
*1117 FILLER_34_41
*1118 FILLER_34_53
*1119 FILLER_34_59
*1120 FILLER_34_70
*1121 FILLER_34_82
*1122 FILLER_34_85
*1123 FILLER_34_97
*1124 FILLER_35_111
*1125 FILLER_35_113
*1126 FILLER_35_125
*1127 FILLER_35_137
*1128 FILLER_35_149
*1129 FILLER_35_15
*1130 FILLER_35_158
*1131 FILLER_35_166
*1132 FILLER_35_169
*1133 FILLER_35_181
*1134 FILLER_35_193
*1135 FILLER_35_205
*1136 FILLER_35_217
*1137 FILLER_35_223
*1138 FILLER_35_225
*1139 FILLER_35_237
*1140 FILLER_35_249
*1141 FILLER_35_261
*1142 FILLER_35_27
*1143 FILLER_35_273
*1144 FILLER_35_279
*1145 FILLER_35_281
*1146 FILLER_35_293
*1147 FILLER_35_3
*1148 FILLER_35_39
*1149 FILLER_35_43
*1150 FILLER_35_47
*1151 FILLER_35_55
*1152 FILLER_35_63
*1153 FILLER_35_75
*1154 FILLER_35_87
*1155 FILLER_35_99
*1156 FILLER_36_102
*1157 FILLER_36_114
*1158 FILLER_36_125
*1159 FILLER_36_137
*1160 FILLER_36_141
*1161 FILLER_36_15
*1162 FILLER_36_153
*1163 FILLER_36_165
*1164 FILLER_36_177
*1165 FILLER_36_189
*1166 FILLER_36_195
*1167 FILLER_36_197
*1168 FILLER_36_209
*1169 FILLER_36_221
*1170 FILLER_36_233
*1171 FILLER_36_245
*1172 FILLER_36_251
*1173 FILLER_36_253
*1174 FILLER_36_265
*1175 FILLER_36_27
*1176 FILLER_36_277
*1177 FILLER_36_289
*1178 FILLER_36_29
*1179 FILLER_36_297
*1180 FILLER_36_3
*1181 FILLER_36_41
*1182 FILLER_36_53
*1183 FILLER_36_65
*1184 FILLER_36_77
*1185 FILLER_36_83
*1186 FILLER_36_85
*1187 FILLER_36_90
*1188 FILLER_37_105
*1189 FILLER_37_111
*1190 FILLER_37_113
*1191 FILLER_37_125
*1192 FILLER_37_137
*1193 FILLER_37_143
*1194 FILLER_37_15
*1195 FILLER_37_151
*1196 FILLER_37_163
*1197 FILLER_37_167
*1198 FILLER_37_169
*1199 FILLER_37_181
*1200 FILLER_37_193
*1201 FILLER_37_205
*1202 FILLER_37_217
*1203 FILLER_37_223
*1204 FILLER_37_225
*1205 FILLER_37_237
*1206 FILLER_37_249
*1207 FILLER_37_261
*1208 FILLER_37_27
*1209 FILLER_37_273
*1210 FILLER_37_279
*1211 FILLER_37_281
*1212 FILLER_37_293
*1213 FILLER_37_3
*1214 FILLER_37_39
*1215 FILLER_37_51
*1216 FILLER_37_55
*1217 FILLER_37_57
*1218 FILLER_37_69
*1219 FILLER_37_81
*1220 FILLER_37_93
*1221 FILLER_38_104
*1222 FILLER_38_112
*1223 FILLER_38_121
*1224 FILLER_38_133
*1225 FILLER_38_139
*1226 FILLER_38_141
*1227 FILLER_38_15
*1228 FILLER_38_153
*1229 FILLER_38_165
*1230 FILLER_38_177
*1231 FILLER_38_189
*1232 FILLER_38_195
*1233 FILLER_38_197
*1234 FILLER_38_209
*1235 FILLER_38_221
*1236 FILLER_38_233
*1237 FILLER_38_245
*1238 FILLER_38_251
*1239 FILLER_38_253
*1240 FILLER_38_265
*1241 FILLER_38_27
*1242 FILLER_38_277
*1243 FILLER_38_289
*1244 FILLER_38_29
*1245 FILLER_38_297
*1246 FILLER_38_3
*1247 FILLER_38_41
*1248 FILLER_38_53
*1249 FILLER_38_65
*1250 FILLER_38_77
*1251 FILLER_38_83
*1252 FILLER_38_92
*1253 FILLER_39_105
*1254 FILLER_39_111
*1255 FILLER_39_113
*1256 FILLER_39_125
*1257 FILLER_39_137
*1258 FILLER_39_149
*1259 FILLER_39_15
*1260 FILLER_39_161
*1261 FILLER_39_167
*1262 FILLER_39_169
*1263 FILLER_39_181
*1264 FILLER_39_193
*1265 FILLER_39_205
*1266 FILLER_39_217
*1267 FILLER_39_223
*1268 FILLER_39_225
*1269 FILLER_39_237
*1270 FILLER_39_249
*1271 FILLER_39_261
*1272 FILLER_39_27
*1273 FILLER_39_273
*1274 FILLER_39_279
*1275 FILLER_39_281
*1276 FILLER_39_293
*1277 FILLER_39_3
*1278 FILLER_39_39
*1279 FILLER_39_51
*1280 FILLER_39_55
*1281 FILLER_39_57
*1282 FILLER_39_69
*1283 FILLER_39_81
*1284 FILLER_39_93
*1285 FILLER_3_109
*1286 FILLER_3_113
*1287 FILLER_3_125
*1288 FILLER_3_137
*1289 FILLER_3_14
*1290 FILLER_3_149
*1291 FILLER_3_161
*1292 FILLER_3_167
*1293 FILLER_3_169
*1294 FILLER_3_181
*1295 FILLER_3_193
*1296 FILLER_3_205
*1297 FILLER_3_217
*1298 FILLER_3_223
*1299 FILLER_3_225
*1300 FILLER_3_237
*1301 FILLER_3_249
*1302 FILLER_3_261
*1303 FILLER_3_273
*1304 FILLER_3_279
*1305 FILLER_3_281
*1306 FILLER_3_293
*1307 FILLER_3_36
*1308 FILLER_3_48
*1309 FILLER_3_6
*1310 FILLER_3_73
*1311 FILLER_3_85
*1312 FILLER_3_97
*1313 FILLER_40_109
*1314 FILLER_40_121
*1315 FILLER_40_133
*1316 FILLER_40_139
*1317 FILLER_40_141
*1318 FILLER_40_15
*1319 FILLER_40_153
*1320 FILLER_40_165
*1321 FILLER_40_177
*1322 FILLER_40_189
*1323 FILLER_40_195
*1324 FILLER_40_197
*1325 FILLER_40_209
*1326 FILLER_40_221
*1327 FILLER_40_233
*1328 FILLER_40_245
*1329 FILLER_40_251
*1330 FILLER_40_253
*1331 FILLER_40_265
*1332 FILLER_40_27
*1333 FILLER_40_277
*1334 FILLER_40_289
*1335 FILLER_40_29
*1336 FILLER_40_297
*1337 FILLER_40_3
*1338 FILLER_40_41
*1339 FILLER_40_53
*1340 FILLER_40_65
*1341 FILLER_40_77
*1342 FILLER_40_83
*1343 FILLER_40_85
*1344 FILLER_40_97
*1345 FILLER_41_105
*1346 FILLER_41_111
*1347 FILLER_41_113
*1348 FILLER_41_125
*1349 FILLER_41_137
*1350 FILLER_41_149
*1351 FILLER_41_15
*1352 FILLER_41_161
*1353 FILLER_41_167
*1354 FILLER_41_169
*1355 FILLER_41_181
*1356 FILLER_41_193
*1357 FILLER_41_205
*1358 FILLER_41_217
*1359 FILLER_41_223
*1360 FILLER_41_225
*1361 FILLER_41_237
*1362 FILLER_41_249
*1363 FILLER_41_261
*1364 FILLER_41_27
*1365 FILLER_41_273
*1366 FILLER_41_279
*1367 FILLER_41_281
*1368 FILLER_41_293
*1369 FILLER_41_3
*1370 FILLER_41_39
*1371 FILLER_41_51
*1372 FILLER_41_55
*1373 FILLER_41_57
*1374 FILLER_41_69
*1375 FILLER_41_81
*1376 FILLER_41_93
*1377 FILLER_42_109
*1378 FILLER_42_121
*1379 FILLER_42_133
*1380 FILLER_42_139
*1381 FILLER_42_141
*1382 FILLER_42_153
*1383 FILLER_42_165
*1384 FILLER_42_177
*1385 FILLER_42_18
*1386 FILLER_42_189
*1387 FILLER_42_195
*1388 FILLER_42_197
*1389 FILLER_42_209
*1390 FILLER_42_221
*1391 FILLER_42_233
*1392 FILLER_42_245
*1393 FILLER_42_251
*1394 FILLER_42_253
*1395 FILLER_42_26
*1396 FILLER_42_265
*1397 FILLER_42_277
*1398 FILLER_42_289
*1399 FILLER_42_29
*1400 FILLER_42_297
*1401 FILLER_42_41
*1402 FILLER_42_53
*1403 FILLER_42_6
*1404 FILLER_42_65
*1405 FILLER_42_77
*1406 FILLER_42_83
*1407 FILLER_42_85
*1408 FILLER_42_97
*1409 FILLER_43_105
*1410 FILLER_43_111
*1411 FILLER_43_113
*1412 FILLER_43_125
*1413 FILLER_43_137
*1414 FILLER_43_149
*1415 FILLER_43_15
*1416 FILLER_43_161
*1417 FILLER_43_167
*1418 FILLER_43_169
*1419 FILLER_43_181
*1420 FILLER_43_193
*1421 FILLER_43_205
*1422 FILLER_43_217
*1423 FILLER_43_223
*1424 FILLER_43_225
*1425 FILLER_43_237
*1426 FILLER_43_249
*1427 FILLER_43_261
*1428 FILLER_43_27
*1429 FILLER_43_273
*1430 FILLER_43_279
*1431 FILLER_43_281
*1432 FILLER_43_293
*1433 FILLER_43_3
*1434 FILLER_43_39
*1435 FILLER_43_51
*1436 FILLER_43_55
*1437 FILLER_43_57
*1438 FILLER_43_69
*1439 FILLER_43_81
*1440 FILLER_43_93
*1441 FILLER_44_109
*1442 FILLER_44_121
*1443 FILLER_44_133
*1444 FILLER_44_139
*1445 FILLER_44_141
*1446 FILLER_44_15
*1447 FILLER_44_153
*1448 FILLER_44_165
*1449 FILLER_44_177
*1450 FILLER_44_189
*1451 FILLER_44_195
*1452 FILLER_44_197
*1453 FILLER_44_209
*1454 FILLER_44_221
*1455 FILLER_44_233
*1456 FILLER_44_245
*1457 FILLER_44_251
*1458 FILLER_44_253
*1459 FILLER_44_265
*1460 FILLER_44_27
*1461 FILLER_44_277
*1462 FILLER_44_289
*1463 FILLER_44_29
*1464 FILLER_44_297
*1465 FILLER_44_3
*1466 FILLER_44_41
*1467 FILLER_44_53
*1468 FILLER_44_65
*1469 FILLER_44_77
*1470 FILLER_44_83
*1471 FILLER_44_85
*1472 FILLER_44_97
*1473 FILLER_45_105
*1474 FILLER_45_111
*1475 FILLER_45_113
*1476 FILLER_45_125
*1477 FILLER_45_137
*1478 FILLER_45_149
*1479 FILLER_45_15
*1480 FILLER_45_161
*1481 FILLER_45_167
*1482 FILLER_45_169
*1483 FILLER_45_181
*1484 FILLER_45_193
*1485 FILLER_45_205
*1486 FILLER_45_217
*1487 FILLER_45_223
*1488 FILLER_45_225
*1489 FILLER_45_237
*1490 FILLER_45_249
*1491 FILLER_45_261
*1492 FILLER_45_27
*1493 FILLER_45_273
*1494 FILLER_45_279
*1495 FILLER_45_281
*1496 FILLER_45_293
*1497 FILLER_45_3
*1498 FILLER_45_39
*1499 FILLER_45_51
*1500 FILLER_45_55
*1501 FILLER_45_57
*1502 FILLER_45_69
*1503 FILLER_45_81
*1504 FILLER_45_93
*1505 FILLER_46_109
*1506 FILLER_46_121
*1507 FILLER_46_133
*1508 FILLER_46_139
*1509 FILLER_46_141
*1510 FILLER_46_153
*1511 FILLER_46_165
*1512 FILLER_46_177
*1513 FILLER_46_18
*1514 FILLER_46_189
*1515 FILLER_46_195
*1516 FILLER_46_197
*1517 FILLER_46_209
*1518 FILLER_46_221
*1519 FILLER_46_233
*1520 FILLER_46_245
*1521 FILLER_46_251
*1522 FILLER_46_253
*1523 FILLER_46_26
*1524 FILLER_46_265
*1525 FILLER_46_277
*1526 FILLER_46_289
*1527 FILLER_46_29
*1528 FILLER_46_297
*1529 FILLER_46_41
*1530 FILLER_46_50
*1531 FILLER_46_6
*1532 FILLER_46_62
*1533 FILLER_46_74
*1534 FILLER_46_82
*1535 FILLER_46_85
*1536 FILLER_46_97
*1537 FILLER_47_105
*1538 FILLER_47_111
*1539 FILLER_47_113
*1540 FILLER_47_125
*1541 FILLER_47_137
*1542 FILLER_47_149
*1543 FILLER_47_15
*1544 FILLER_47_161
*1545 FILLER_47_167
*1546 FILLER_47_169
*1547 FILLER_47_181
*1548 FILLER_47_193
*1549 FILLER_47_205
*1550 FILLER_47_217
*1551 FILLER_47_223
*1552 FILLER_47_225
*1553 FILLER_47_237
*1554 FILLER_47_249
*1555 FILLER_47_261
*1556 FILLER_47_27
*1557 FILLER_47_273
*1558 FILLER_47_279
*1559 FILLER_47_281
*1560 FILLER_47_293
*1561 FILLER_47_3
*1562 FILLER_47_39
*1563 FILLER_47_51
*1564 FILLER_47_55
*1565 FILLER_47_57
*1566 FILLER_47_69
*1567 FILLER_47_81
*1568 FILLER_47_93
*1569 FILLER_48_109
*1570 FILLER_48_121
*1571 FILLER_48_133
*1572 FILLER_48_139
*1573 FILLER_48_141
*1574 FILLER_48_15
*1575 FILLER_48_153
*1576 FILLER_48_165
*1577 FILLER_48_177
*1578 FILLER_48_189
*1579 FILLER_48_195
*1580 FILLER_48_197
*1581 FILLER_48_209
*1582 FILLER_48_221
*1583 FILLER_48_233
*1584 FILLER_48_245
*1585 FILLER_48_251
*1586 FILLER_48_253
*1587 FILLER_48_265
*1588 FILLER_48_27
*1589 FILLER_48_277
*1590 FILLER_48_289
*1591 FILLER_48_29
*1592 FILLER_48_297
*1593 FILLER_48_3
*1594 FILLER_48_41
*1595 FILLER_48_53
*1596 FILLER_48_65
*1597 FILLER_48_77
*1598 FILLER_48_83
*1599 FILLER_48_85
*1600 FILLER_48_97
*1601 FILLER_49_103
*1602 FILLER_49_111
*1603 FILLER_49_113
*1604 FILLER_49_125
*1605 FILLER_49_137
*1606 FILLER_49_149
*1607 FILLER_49_15
*1608 FILLER_49_161
*1609 FILLER_49_167
*1610 FILLER_49_169
*1611 FILLER_49_181
*1612 FILLER_49_193
*1613 FILLER_49_205
*1614 FILLER_49_217
*1615 FILLER_49_223
*1616 FILLER_49_225
*1617 FILLER_49_237
*1618 FILLER_49_249
*1619 FILLER_49_261
*1620 FILLER_49_27
*1621 FILLER_49_273
*1622 FILLER_49_279
*1623 FILLER_49_281
*1624 FILLER_49_293
*1625 FILLER_49_3
*1626 FILLER_49_39
*1627 FILLER_49_51
*1628 FILLER_49_55
*1629 FILLER_49_67
*1630 FILLER_49_79
*1631 FILLER_49_91
*1632 FILLER_4_109
*1633 FILLER_4_125
*1634 FILLER_4_132
*1635 FILLER_4_141
*1636 FILLER_4_153
*1637 FILLER_4_165
*1638 FILLER_4_177
*1639 FILLER_4_189
*1640 FILLER_4_195
*1641 FILLER_4_197
*1642 FILLER_4_209
*1643 FILLER_4_221
*1644 FILLER_4_23
*1645 FILLER_4_233
*1646 FILLER_4_245
*1647 FILLER_4_251
*1648 FILLER_4_253
*1649 FILLER_4_265
*1650 FILLER_4_27
*1651 FILLER_4_277
*1652 FILLER_4_289
*1653 FILLER_4_297
*1654 FILLER_4_3
*1655 FILLER_4_32
*1656 FILLER_4_61
*1657 FILLER_4_73
*1658 FILLER_4_81
*1659 FILLER_4_85