*SPEF "ieee 1481-1999"
*DESIGN "afoote_w5s8_tt02_top"
*DATE "11:11:11 Fri 11 11, 1111"
*VENDOR "OpenRCX"
*PROGRAM "Parallel Extraction"
*VERSION "1.0"
*DESIGN_FLOW "NAME_SCOPE LOCAL" "PIN_CAP NONE"
*DIVIDER /
*DELIMITER :
*BUS_DELIMITER []
*T_UNIT 1 NS
*C_UNIT 1 PF
*R_UNIT 1 OHM
*L_UNIT 1 HENRY

*NAME_MAP
*1 io_in[0]
*2 io_in[1]
*3 io_in[2]
*4 io_in[3]
*5 io_in[4]
*6 io_in[5]
*7 io_in[6]
*8 io_in[7]
*9 net8
*10 io_out[1]
*11 io_out[2]
*12 io_out[3]
*13 io_out[4]
*14 io_out[5]
*15 io_out[6]
*16 io_out[7]
*19 _000_
*20 _001_
*21 _002_
*22 _003_
*23 _004_
*24 _005_
*25 _006_
*26 _007_
*27 _008_
*28 _009_
*29 _010_
*30 _011_
*31 _012_
*32 _013_
*33 _014_
*34 _015_
*35 _016_
*36 _017_
*37 _018_
*38 _019_
*39 _020_
*40 _021_
*41 _022_
*42 _023_
*43 _024_
*44 _025_
*45 _026_
*46 _027_
*47 _028_
*48 _029_
*49 _030_
*50 _031_
*51 _032_
*52 _033_
*53 _034_
*54 _035_
*55 _036_
*56 _037_
*57 _038_
*58 _039_
*59 _040_
*60 _041_
*61 _042_
*62 _043_
*63 _044_
*64 _045_
*65 _046_
*66 _047_
*67 _048_
*68 _049_
*69 _050_
*70 _051_
*71 _052_
*72 _053_
*73 _054_
*74 _055_
*75 _056_
*76 _057_
*77 _058_
*78 _059_
*79 _060_
*80 _061_
*81 _062_
*82 _063_
*83 _064_
*84 _065_
*85 _066_
*86 _067_
*87 _068_
*88 _069_
*89 _070_
*90 _071_
*91 _072_
*92 _073_
*93 _074_
*94 _075_
*95 _076_
*96 _077_
*97 _078_
*98 _079_
*99 _080_
*100 _081_
*101 _082_
*102 _083_
*103 _084_
*104 _085_
*105 _086_
*106 _087_
*107 _088_
*108 _089_
*109 _090_
*110 _091_
*111 _092_
*112 _093_
*113 _094_
*114 _095_
*115 _096_
*116 _097_
*117 _098_
*118 _099_
*119 _100_
*120 _101_
*121 _102_
*122 _103_
*123 _104_
*124 _105_
*125 _106_
*126 _107_
*127 _108_
*128 _109_
*129 clknet_0_io_in[0]
*130 clknet_1_0__leaf_io_in[0]
*131 clknet_1_1__leaf_io_in[0]
*132 core\.direction
*133 core\.new_sym_block\.z0
*134 core\.new_sym_block\.z1
*135 core\.new_sym_block\.z2
*136 core\.stored_state\[0\]
*137 core\.stored_state\[1\]
*138 core\.stored_state\[2\]
*139 core\.stored_state\[3\]
*140 core\.stored_state\[4\]
*141 core\.stored_state\[5\]
*142 core\.stored_state\[6\]
*143 core\.stored_state\[7\]
*144 core\.symbuf\[0\]
*145 core\.symbuf\[1\]
*146 core\.symbuf\[2\]
*147 core\.symbuf_valid
*148 net1
*149 net2
*150 net3
*151 net4
*152 net5
*153 net6
*154 net7
*155 FILLER_0_109
*156 FILLER_0_113
*157 FILLER_0_125
*158 FILLER_0_137
*159 FILLER_0_141
*160 FILLER_0_153
*161 FILLER_0_165
*162 FILLER_0_169
*163 FILLER_0_181
*164 FILLER_0_193
*165 FILLER_0_197
*166 FILLER_0_209
*167 FILLER_0_221
*168 FILLER_0_225
*169 FILLER_0_237
*170 FILLER_0_24
*171 FILLER_0_249
*172 FILLER_0_253
*173 FILLER_0_265
*174 FILLER_0_277
*175 FILLER_0_281
*176 FILLER_0_29
*177 FILLER_0_293
*178 FILLER_0_3
*179 FILLER_0_35
*180 FILLER_0_52
*181 FILLER_0_7
*182 FILLER_0_73
*183 FILLER_0_81
*184 FILLER_0_85
*185 FILLER_0_97
*186 FILLER_10_109
*187 FILLER_10_121
*188 FILLER_10_133
*189 FILLER_10_139
*190 FILLER_10_141
*191 FILLER_10_15
*192 FILLER_10_153
*193 FILLER_10_165
*194 FILLER_10_177
*195 FILLER_10_189
*196 FILLER_10_195
*197 FILLER_10_197
*198 FILLER_10_209
*199 FILLER_10_221
*200 FILLER_10_233
*201 FILLER_10_245
*202 FILLER_10_251
*203 FILLER_10_253
*204 FILLER_10_265
*205 FILLER_10_27
*206 FILLER_10_277
*207 FILLER_10_289
*208 FILLER_10_29
*209 FILLER_10_297
*210 FILLER_10_3
*211 FILLER_10_41
*212 FILLER_10_53
*213 FILLER_10_64
*214 FILLER_10_76
*215 FILLER_10_85
*216 FILLER_10_97
*217 FILLER_11_105
*218 FILLER_11_111
*219 FILLER_11_113
*220 FILLER_11_125
*221 FILLER_11_137
*222 FILLER_11_149
*223 FILLER_11_15
*224 FILLER_11_161
*225 FILLER_11_167
*226 FILLER_11_169
*227 FILLER_11_181
*228 FILLER_11_193
*229 FILLER_11_205
*230 FILLER_11_217
*231 FILLER_11_223
*232 FILLER_11_225
*233 FILLER_11_237
*234 FILLER_11_249
*235 FILLER_11_261
*236 FILLER_11_27
*237 FILLER_11_273
*238 FILLER_11_279
*239 FILLER_11_281
*240 FILLER_11_293
*241 FILLER_11_3
*242 FILLER_11_39
*243 FILLER_11_51
*244 FILLER_11_55
*245 FILLER_11_57
*246 FILLER_11_69
*247 FILLER_11_81
*248 FILLER_11_93
*249 FILLER_12_109
*250 FILLER_12_121
*251 FILLER_12_13
*252 FILLER_12_133
*253 FILLER_12_139
*254 FILLER_12_141
*255 FILLER_12_153
*256 FILLER_12_165
*257 FILLER_12_177
*258 FILLER_12_189
*259 FILLER_12_195
*260 FILLER_12_197
*261 FILLER_12_209
*262 FILLER_12_221
*263 FILLER_12_233
*264 FILLER_12_245
*265 FILLER_12_25
*266 FILLER_12_251
*267 FILLER_12_253
*268 FILLER_12_265
*269 FILLER_12_277
*270 FILLER_12_289
*271 FILLER_12_29
*272 FILLER_12_297
*273 FILLER_12_41
*274 FILLER_12_53
*275 FILLER_12_65
*276 FILLER_12_77
*277 FILLER_12_83
*278 FILLER_12_85
*279 FILLER_12_97
*280 FILLER_13_105
*281 FILLER_13_111
*282 FILLER_13_113
*283 FILLER_13_125
*284 FILLER_13_137
*285 FILLER_13_14
*286 FILLER_13_149
*287 FILLER_13_161
*288 FILLER_13_167
*289 FILLER_13_169
*290 FILLER_13_181
*291 FILLER_13_193
*292 FILLER_13_205
*293 FILLER_13_217
*294 FILLER_13_223
*295 FILLER_13_225
*296 FILLER_13_237
*297 FILLER_13_249
*298 FILLER_13_26
*299 FILLER_13_261
*300 FILLER_13_273
*301 FILLER_13_279
*302 FILLER_13_281
*303 FILLER_13_293
*304 FILLER_13_3
*305 FILLER_13_38
*306 FILLER_13_50
*307 FILLER_13_57
*308 FILLER_13_69
*309 FILLER_13_81
*310 FILLER_13_93
*311 FILLER_14_109
*312 FILLER_14_121
*313 FILLER_14_133
*314 FILLER_14_139
*315 FILLER_14_141
*316 FILLER_14_153
*317 FILLER_14_165
*318 FILLER_14_177
*319 FILLER_14_189
*320 FILLER_14_19
*321 FILLER_14_195
*322 FILLER_14_197
*323 FILLER_14_209
*324 FILLER_14_221
*325 FILLER_14_233
*326 FILLER_14_245
*327 FILLER_14_251
*328 FILLER_14_253
*329 FILLER_14_265
*330 FILLER_14_27
*331 FILLER_14_277
*332 FILLER_14_289
*333 FILLER_14_297
*334 FILLER_14_3
*335 FILLER_14_39
*336 FILLER_14_51
*337 FILLER_14_63
*338 FILLER_14_75
*339 FILLER_14_83
*340 FILLER_14_85
*341 FILLER_14_97
*342 FILLER_15_105
*343 FILLER_15_111
*344 FILLER_15_113
*345 FILLER_15_125
*346 FILLER_15_13
*347 FILLER_15_137
*348 FILLER_15_149
*349 FILLER_15_161
*350 FILLER_15_167
*351 FILLER_15_169
*352 FILLER_15_181
*353 FILLER_15_193
*354 FILLER_15_20
*355 FILLER_15_205
*356 FILLER_15_217
*357 FILLER_15_223
*358 FILLER_15_225
*359 FILLER_15_237
*360 FILLER_15_249
*361 FILLER_15_261
*362 FILLER_15_273
*363 FILLER_15_279
*364 FILLER_15_281
*365 FILLER_15_293
*366 FILLER_15_3
*367 FILLER_15_32
*368 FILLER_15_44
*369 FILLER_15_57
*370 FILLER_15_69
*371 FILLER_15_81
*372 FILLER_15_93
*373 FILLER_16_109
*374 FILLER_16_121
*375 FILLER_16_133
*376 FILLER_16_139
*377 FILLER_16_141
*378 FILLER_16_15
*379 FILLER_16_153
*380 FILLER_16_165
*381 FILLER_16_177
*382 FILLER_16_189
*383 FILLER_16_195
*384 FILLER_16_197
*385 FILLER_16_209
*386 FILLER_16_22
*387 FILLER_16_221
*388 FILLER_16_233
*389 FILLER_16_245
*390 FILLER_16_251
*391 FILLER_16_253
*392 FILLER_16_265
*393 FILLER_16_277
*394 FILLER_16_289
*395 FILLER_16_29
*396 FILLER_16_297
*397 FILLER_16_3
*398 FILLER_16_41
*399 FILLER_16_53
*400 FILLER_16_65
*401 FILLER_16_77
*402 FILLER_16_83
*403 FILLER_16_85
*404 FILLER_16_97
*405 FILLER_17_105
*406 FILLER_17_111
*407 FILLER_17_113
*408 FILLER_17_125
*409 FILLER_17_137
*410 FILLER_17_149
*411 FILLER_17_15
*412 FILLER_17_161
*413 FILLER_17_167
*414 FILLER_17_169
*415 FILLER_17_181
*416 FILLER_17_193
*417 FILLER_17_205
*418 FILLER_17_217
*419 FILLER_17_223
*420 FILLER_17_225
*421 FILLER_17_237
*422 FILLER_17_249
*423 FILLER_17_26
*424 FILLER_17_261
*425 FILLER_17_273
*426 FILLER_17_279
*427 FILLER_17_281
*428 FILLER_17_293
*429 FILLER_17_3
*430 FILLER_17_38
*431 FILLER_17_50
*432 FILLER_17_57
*433 FILLER_17_69
*434 FILLER_17_81
*435 FILLER_17_93
*436 FILLER_18_109
*437 FILLER_18_121
*438 FILLER_18_13
*439 FILLER_18_133
*440 FILLER_18_139
*441 FILLER_18_141
*442 FILLER_18_153
*443 FILLER_18_165
*444 FILLER_18_17
*445 FILLER_18_177
*446 FILLER_18_189
*447 FILLER_18_195
*448 FILLER_18_197
*449 FILLER_18_209
*450 FILLER_18_221
*451 FILLER_18_233
*452 FILLER_18_24
*453 FILLER_18_245
*454 FILLER_18_251
*455 FILLER_18_253
*456 FILLER_18_265
*457 FILLER_18_277
*458 FILLER_18_289
*459 FILLER_18_297
*460 FILLER_18_3
*461 FILLER_18_39
*462 FILLER_18_50
*463 FILLER_18_62
*464 FILLER_18_74
*465 FILLER_18_82
*466 FILLER_18_85
*467 FILLER_18_97
*468 FILLER_19_105
*469 FILLER_19_111
*470 FILLER_19_113
*471 FILLER_19_125
*472 FILLER_19_137
*473 FILLER_19_149
*474 FILLER_19_15
*475 FILLER_19_161
*476 FILLER_19_167
*477 FILLER_19_169
*478 FILLER_19_181
*479 FILLER_19_193
*480 FILLER_19_205
*481 FILLER_19_217
*482 FILLER_19_223
*483 FILLER_19_225
*484 FILLER_19_237
*485 FILLER_19_249
*486 FILLER_19_261
*487 FILLER_19_27
*488 FILLER_19_273
*489 FILLER_19_279
*490 FILLER_19_281
*491 FILLER_19_293
*492 FILLER_19_3
*493 FILLER_19_35
*494 FILLER_19_47
*495 FILLER_19_55
*496 FILLER_19_57
*497 FILLER_19_69
*498 FILLER_19_81
*499 FILLER_19_93
*500 FILLER_1_109
*501 FILLER_1_113
*502 FILLER_1_125
*503 FILLER_1_137
*504 FILLER_1_149
*505 FILLER_1_15
*506 FILLER_1_161
*507 FILLER_1_167
*508 FILLER_1_169
*509 FILLER_1_181
*510 FILLER_1_193
*511 FILLER_1_205
*512 FILLER_1_217
*513 FILLER_1_223
*514 FILLER_1_225
*515 FILLER_1_237
*516 FILLER_1_249
*517 FILLER_1_261
*518 FILLER_1_273
*519 FILLER_1_279
*520 FILLER_1_281
*521 FILLER_1_293
*522 FILLER_1_3
*523 FILLER_1_36
*524 FILLER_1_48
*525 FILLER_1_73
*526 FILLER_1_85
*527 FILLER_1_97
*528 FILLER_20_109
*529 FILLER_20_121
*530 FILLER_20_133
*531 FILLER_20_139
*532 FILLER_20_141
*533 FILLER_20_153
*534 FILLER_20_165
*535 FILLER_20_177
*536 FILLER_20_18
*537 FILLER_20_189
*538 FILLER_20_195
*539 FILLER_20_197
*540 FILLER_20_209
*541 FILLER_20_221
*542 FILLER_20_233
*543 FILLER_20_24
*544 FILLER_20_245
*545 FILLER_20_251
*546 FILLER_20_253
*547 FILLER_20_265
*548 FILLER_20_277
*549 FILLER_20_289
*550 FILLER_20_297
*551 FILLER_20_39
*552 FILLER_20_49
*553 FILLER_20_58
*554 FILLER_20_6
*555 FILLER_20_68
*556 FILLER_20_80
*557 FILLER_20_85
*558 FILLER_20_97
*559 FILLER_21_103
*560 FILLER_21_111
*561 FILLER_21_113
*562 FILLER_21_125
*563 FILLER_21_137
*564 FILLER_21_149
*565 FILLER_21_15
*566 FILLER_21_161
*567 FILLER_21_167
*568 FILLER_21_169
*569 FILLER_21_181
*570 FILLER_21_193
*571 FILLER_21_205
*572 FILLER_21_217
*573 FILLER_21_223
*574 FILLER_21_225
*575 FILLER_21_23
*576 FILLER_21_237
*577 FILLER_21_249
*578 FILLER_21_261
*579 FILLER_21_273
*580 FILLER_21_279
*581 FILLER_21_281
*582 FILLER_21_293
*583 FILLER_21_3
*584 FILLER_21_32
*585 FILLER_21_41
*586 FILLER_21_52
*587 FILLER_21_67
*588 FILLER_21_79
*589 FILLER_21_91
*590 FILLER_22_109
*591 FILLER_22_12
*592 FILLER_22_121
*593 FILLER_22_133
*594 FILLER_22_139
*595 FILLER_22_141
*596 FILLER_22_153
*597 FILLER_22_165
*598 FILLER_22_177
*599 FILLER_22_189
*600 FILLER_22_195
*601 FILLER_22_197
*602 FILLER_22_209
*603 FILLER_22_221
*604 FILLER_22_23
*605 FILLER_22_233
*606 FILLER_22_245
*607 FILLER_22_251
*608 FILLER_22_253
*609 FILLER_22_265
*610 FILLER_22_27
*611 FILLER_22_277
*612 FILLER_22_289
*613 FILLER_22_29
*614 FILLER_22_297
*615 FILLER_22_33
*616 FILLER_22_42
*617 FILLER_22_53
*618 FILLER_22_65
*619 FILLER_22_77
*620 FILLER_22_83
*621 FILLER_22_85
*622 FILLER_22_97
*623 FILLER_23_100
*624 FILLER_23_113
*625 FILLER_23_125
*626 FILLER_23_137
*627 FILLER_23_149
*628 FILLER_23_15
*629 FILLER_23_161
*630 FILLER_23_167
*631 FILLER_23_169
*632 FILLER_23_181
*633 FILLER_23_193
*634 FILLER_23_205
*635 FILLER_23_217
*636 FILLER_23_223
*637 FILLER_23_225
*638 FILLER_23_237
*639 FILLER_23_249
*640 FILLER_23_261
*641 FILLER_23_273
*642 FILLER_23_279
*643 FILLER_23_281
*644 FILLER_23_293
*645 FILLER_23_3
*646 FILLER_23_31
*647 FILLER_23_43
*648 FILLER_23_50
*649 FILLER_23_57
*650 FILLER_23_67
*651 FILLER_23_76
*652 FILLER_23_88
*653 FILLER_24_109
*654 FILLER_24_121
*655 FILLER_24_133
*656 FILLER_24_139
*657 FILLER_24_141
*658 FILLER_24_153
*659 FILLER_24_165
*660 FILLER_24_177
*661 FILLER_24_18
*662 FILLER_24_189
*663 FILLER_24_195
*664 FILLER_24_197
*665 FILLER_24_209
*666 FILLER_24_22
*667 FILLER_24_221
*668 FILLER_24_233
*669 FILLER_24_245
*670 FILLER_24_251
*671 FILLER_24_253
*672 FILLER_24_265
*673 FILLER_24_277
*674 FILLER_24_289
*675 FILLER_24_29
*676 FILLER_24_297
*677 FILLER_24_36
*678 FILLER_24_50
*679 FILLER_24_6
*680 FILLER_24_62
*681 FILLER_24_71
*682 FILLER_24_83
*683 FILLER_24_85
*684 FILLER_24_97
*685 FILLER_25_100
*686 FILLER_25_11
*687 FILLER_25_113
*688 FILLER_25_125
*689 FILLER_25_137
*690 FILLER_25_149
*691 FILLER_25_161
*692 FILLER_25_167
*693 FILLER_25_169
*694 FILLER_25_181
*695 FILLER_25_19
*696 FILLER_25_193
*697 FILLER_25_205
*698 FILLER_25_217
*699 FILLER_25_223
*700 FILLER_25_225
*701 FILLER_25_237
*702 FILLER_25_249
*703 FILLER_25_26
*704 FILLER_25_261
*705 FILLER_25_273
*706 FILLER_25_279
*707 FILLER_25_281
*708 FILLER_25_293
*709 FILLER_25_3
*710 FILLER_25_30
*711 FILLER_25_37
*712 FILLER_25_51
*713 FILLER_25_55
*714 FILLER_25_62
*715 FILLER_25_68
*716 FILLER_25_76
*717 FILLER_25_88
*718 FILLER_26_109
*719 FILLER_26_121
*720 FILLER_26_133
*721 FILLER_26_139
*722 FILLER_26_141
*723 FILLER_26_15
*724 FILLER_26_153
*725 FILLER_26_165
*726 FILLER_26_177
*727 FILLER_26_189
*728 FILLER_26_195
*729 FILLER_26_197
*730 FILLER_26_209
*731 FILLER_26_221
*732 FILLER_26_23
*733 FILLER_26_233
*734 FILLER_26_245
*735 FILLER_26_251
*736 FILLER_26_253
*737 FILLER_26_265
*738 FILLER_26_27
*739 FILLER_26_277
*740 FILLER_26_289
*741 FILLER_26_29
*742 FILLER_26_297
*743 FILLER_26_3
*744 FILLER_26_33
*745 FILLER_26_42
*746 FILLER_26_49
*747 FILLER_26_63
*748 FILLER_26_69
*749 FILLER_26_80
*750 FILLER_26_85
*751 FILLER_26_97
*752 FILLER_27_109
*753 FILLER_27_113
*754 FILLER_27_125
*755 FILLER_27_137
*756 FILLER_27_149
*757 FILLER_27_161
*758 FILLER_27_167
*759 FILLER_27_169
*760 FILLER_27_181
*761 FILLER_27_19
*762 FILLER_27_193
*763 FILLER_27_205
*764 FILLER_27_217
*765 FILLER_27_223
*766 FILLER_27_225
*767 FILLER_27_237
*768 FILLER_27_249
*769 FILLER_27_261
*770 FILLER_27_273
*771 FILLER_27_279
*772 FILLER_27_281
*773 FILLER_27_293
*774 FILLER_27_3
*775 FILLER_27_30
*776 FILLER_27_44
*777 FILLER_27_51
*778 FILLER_27_55
*779 FILLER_27_57
*780 FILLER_27_73
*781 FILLER_27_85
*782 FILLER_27_97
*783 FILLER_28_109
*784 FILLER_28_121
*785 FILLER_28_133
*786 FILLER_28_139
*787 FILLER_28_14
*788 FILLER_28_141
*789 FILLER_28_153
*790 FILLER_28_165
*791 FILLER_28_177
*792 FILLER_28_189
*793 FILLER_28_195
*794 FILLER_28_197
*795 FILLER_28_209
*796 FILLER_28_221
*797 FILLER_28_233
*798 FILLER_28_24
*799 FILLER_28_245
*800 FILLER_28_251
*801 FILLER_28_253
*802 FILLER_28_265
*803 FILLER_28_277
*804 FILLER_28_289
*805 FILLER_28_297
*806 FILLER_28_36
*807 FILLER_28_50
*808 FILLER_28_6
*809 FILLER_28_64
*810 FILLER_28_73
*811 FILLER_28_81
*812 FILLER_28_85
*813 FILLER_28_97
*814 FILLER_29_107
*815 FILLER_29_111
*816 FILLER_29_113
*817 FILLER_29_125
*818 FILLER_29_137
*819 FILLER_29_149
*820 FILLER_29_15
*821 FILLER_29_161
*822 FILLER_29_167
*823 FILLER_29_169
*824 FILLER_29_181
*825 FILLER_29_193
*826 FILLER_29_205
*827 FILLER_29_217
*828 FILLER_29_223
*829 FILLER_29_225
*830 FILLER_29_237
*831 FILLER_29_249
*832 FILLER_29_261
*833 FILLER_29_273
*834 FILLER_29_279
*835 FILLER_29_281
*836 FILLER_29_29
*837 FILLER_29_293
*838 FILLER_29_3
*839 FILLER_29_42
*840 FILLER_29_46
*841 FILLER_29_52
*842 FILLER_29_57
*843 FILLER_29_65
*844 FILLER_29_74
*845 FILLER_29_83
*846 FILLER_29_95
*847 FILLER_2_109
*848 FILLER_2_121
*849 FILLER_2_133
*850 FILLER_2_139
*851 FILLER_2_141
*852 FILLER_2_153
*853 FILLER_2_165
*854 FILLER_2_177
*855 FILLER_2_189
*856 FILLER_2_19
*857 FILLER_2_195
*858 FILLER_2_197
*859 FILLER_2_209
*860 FILLER_2_221
*861 FILLER_2_233
*862 FILLER_2_245
*863 FILLER_2_251
*864 FILLER_2_253
*865 FILLER_2_265
*866 FILLER_2_27
*867 FILLER_2_277
*868 FILLER_2_289
*869 FILLER_2_29
*870 FILLER_2_297
*871 FILLER_2_53
*872 FILLER_2_65
*873 FILLER_2_77
*874 FILLER_2_83
*875 FILLER_2_85
*876 FILLER_2_97
*877 FILLER_30_109
*878 FILLER_30_121
*879 FILLER_30_133
*880 FILLER_30_139
*881 FILLER_30_14
*882 FILLER_30_141
*883 FILLER_30_153
*884 FILLER_30_165
*885 FILLER_30_177
*886 FILLER_30_189
*887 FILLER_30_195
*888 FILLER_30_197
*889 FILLER_30_209
*890 FILLER_30_221
*891 FILLER_30_233
*892 FILLER_30_24
*893 FILLER_30_245
*894 FILLER_30_251
*895 FILLER_30_253
*896 FILLER_30_265
*897 FILLER_30_277
*898 FILLER_30_289
*899 FILLER_30_297
*900 FILLER_30_3
*901 FILLER_30_39
*902 FILLER_30_43
*903 FILLER_30_49
*904 FILLER_30_61
*905 FILLER_30_7
*906 FILLER_30_72
*907 FILLER_30_85
*908 FILLER_30_97
*909 FILLER_31_101
*910 FILLER_31_109
*911 FILLER_31_113
*912 FILLER_31_125
*913 FILLER_31_137
*914 FILLER_31_14
*915 FILLER_31_149
*916 FILLER_31_161
*917 FILLER_31_167
*918 FILLER_31_169
*919 FILLER_31_181
*920 FILLER_31_193
*921 FILLER_31_205
*922 FILLER_31_21
*923 FILLER_31_217
*924 FILLER_31_223
*925 FILLER_31_225
*926 FILLER_31_237
*927 FILLER_31_249
*928 FILLER_31_261
*929 FILLER_31_273
*930 FILLER_31_279
*931 FILLER_31_281
*932 FILLER_31_29
*933 FILLER_31_293
*934 FILLER_31_3
*935 FILLER_31_37
*936 FILLER_31_47
*937 FILLER_31_55
*938 FILLER_31_65
*939 FILLER_31_7
*940 FILLER_31_77
*941 FILLER_31_89
*942 FILLER_32_10
*943 FILLER_32_109
*944 FILLER_32_121
*945 FILLER_32_133
*946 FILLER_32_139
*947 FILLER_32_141
*948 FILLER_32_153
*949 FILLER_32_165
*950 FILLER_32_177
*951 FILLER_32_189
*952 FILLER_32_195
*953 FILLER_32_197
*954 FILLER_32_209
*955 FILLER_32_21
*956 FILLER_32_221
*957 FILLER_32_233
*958 FILLER_32_245
*959 FILLER_32_251
*960 FILLER_32_253
*961 FILLER_32_265
*962 FILLER_32_27
*963 FILLER_32_277
*964 FILLER_32_289
*965 FILLER_32_29
*966 FILLER_32_297
*967 FILLER_32_35
*968 FILLER_32_47
*969 FILLER_32_58
*970 FILLER_32_6
*971 FILLER_32_64
*972 FILLER_32_73
*973 FILLER_32_81
*974 FILLER_32_85
*975 FILLER_32_97
*976 FILLER_33_109
*977 FILLER_33_11
*978 FILLER_33_113
*979 FILLER_33_125
*980 FILLER_33_137
*981 FILLER_33_149
*982 FILLER_33_15
*983 FILLER_33_161
*984 FILLER_33_167
*985 FILLER_33_169
*986 FILLER_33_181
*987 FILLER_33_193
*988 FILLER_33_205
*989 FILLER_33_217
*990 FILLER_33_22
*991 FILLER_33_223
*992 FILLER_33_225
*993 FILLER_33_237
*994 FILLER_33_249
*995 FILLER_33_261
*996 FILLER_33_273
*997 FILLER_33_279
*998 FILLER_33_281
*999 FILLER_33_293
*1000 FILLER_33_3
*1001 FILLER_33_33
*1002 FILLER_33_41
*1003 FILLER_33_49
*1004 FILLER_33_55
*1005 FILLER_33_57
*1006 FILLER_33_73
*1007 FILLER_33_85
*1008 FILLER_33_97
*1009 FILLER_34_109
*1010 FILLER_34_121
*1011 FILLER_34_133
*1012 FILLER_34_139
*1013 FILLER_34_141
*1014 FILLER_34_15
*1015 FILLER_34_153
*1016 FILLER_34_165
*1017 FILLER_34_177
*1018 FILLER_34_189
*1019 FILLER_34_195
*1020 FILLER_34_197
*1021 FILLER_34_209
*1022 FILLER_34_221
*1023 FILLER_34_233
*1024 FILLER_34_24
*1025 FILLER_34_245
*1026 FILLER_34_251
*1027 FILLER_34_253
*1028 FILLER_34_265
*1029 FILLER_34_277
*1030 FILLER_34_289
*1031 FILLER_34_29
*1032 FILLER_34_297
*1033 FILLER_34_3
*1034 FILLER_34_41
*1035 FILLER_34_53
*1036 FILLER_34_64
*1037 FILLER_34_76
*1038 FILLER_34_85
*1039 FILLER_34_97
*1040 FILLER_35_110
*1041 FILLER_35_113
*1042 FILLER_35_125
*1043 FILLER_35_137
*1044 FILLER_35_149
*1045 FILLER_35_15
*1046 FILLER_35_161
*1047 FILLER_35_167
*1048 FILLER_35_169
*1049 FILLER_35_181
*1050 FILLER_35_193
*1051 FILLER_35_205
*1052 FILLER_35_21
*1053 FILLER_35_217
*1054 FILLER_35_223
*1055 FILLER_35_225
*1056 FILLER_35_237
*1057 FILLER_35_249
*1058 FILLER_35_261
*1059 FILLER_35_273
*1060 FILLER_35_279
*1061 FILLER_35_281
*1062 FILLER_35_293
*1063 FILLER_35_3
*1064 FILLER_35_30
*1065 FILLER_35_42
*1066 FILLER_35_51
*1067 FILLER_35_55
*1068 FILLER_35_64
*1069 FILLER_35_74
*1070 FILLER_35_86
*1071 FILLER_35_98
*1072 FILLER_36_109
*1073 FILLER_36_121
*1074 FILLER_36_133
*1075 FILLER_36_139
*1076 FILLER_36_141
*1077 FILLER_36_15
*1078 FILLER_36_153
*1079 FILLER_36_165
*1080 FILLER_36_177
*1081 FILLER_36_189
*1082 FILLER_36_195
*1083 FILLER_36_197
*1084 FILLER_36_209
*1085 FILLER_36_221
*1086 FILLER_36_233
*1087 FILLER_36_24
*1088 FILLER_36_245
*1089 FILLER_36_251
*1090 FILLER_36_253
*1091 FILLER_36_265
*1092 FILLER_36_277
*1093 FILLER_36_289
*1094 FILLER_36_297
*1095 FILLER_36_3
*1096 FILLER_36_33
*1097 FILLER_36_47
*1098 FILLER_36_55
*1099 FILLER_36_65
*1100 FILLER_36_77
*1101 FILLER_36_83
*1102 FILLER_36_85
*1103 FILLER_36_97
*1104 FILLER_37_105
*1105 FILLER_37_111
*1106 FILLER_37_113
*1107 FILLER_37_125
*1108 FILLER_37_137
*1109 FILLER_37_149
*1110 FILLER_37_15
*1111 FILLER_37_161
*1112 FILLER_37_167
*1113 FILLER_37_169
*1114 FILLER_37_181
*1115 FILLER_37_19
*1116 FILLER_37_193
*1117 FILLER_37_205
*1118 FILLER_37_217
*1119 FILLER_37_223
*1120 FILLER_37_225
*1121 FILLER_37_23
*1122 FILLER_37_237
*1123 FILLER_37_249
*1124 FILLER_37_261
*1125 FILLER_37_273
*1126 FILLER_37_279
*1127 FILLER_37_281
*1128 FILLER_37_293
*1129 FILLER_37_3
*1130 FILLER_37_33
*1131 FILLER_37_45
*1132 FILLER_37_53
*1133 FILLER_37_57
*1134 FILLER_37_69
*1135 FILLER_37_81
*1136 FILLER_37_93
*1137 FILLER_38_109
*1138 FILLER_38_121
*1139 FILLER_38_13
*1140 FILLER_38_133
*1141 FILLER_38_139
*1142 FILLER_38_141
*1143 FILLER_38_153
*1144 FILLER_38_165
*1145 FILLER_38_177
*1146 FILLER_38_189
*1147 FILLER_38_195
*1148 FILLER_38_197
*1149 FILLER_38_209
*1150 FILLER_38_221
*1151 FILLER_38_233
*1152 FILLER_38_245
*1153 FILLER_38_25
*1154 FILLER_38_251
*1155 FILLER_38_253
*1156 FILLER_38_265
*1157 FILLER_38_277
*1158 FILLER_38_289
*1159 FILLER_38_29
*1160 FILLER_38_297
*1161 FILLER_38_3
*1162 FILLER_38_41
*1163 FILLER_38_47
*1164 FILLER_38_56
*1165 FILLER_38_68
*1166 FILLER_38_80
*1167 FILLER_38_85
*1168 FILLER_38_97
*1169 FILLER_39_105
*1170 FILLER_39_111
*1171 FILLER_39_113
*1172 FILLER_39_125
*1173 FILLER_39_137
*1174 FILLER_39_149
*1175 FILLER_39_161
*1176 FILLER_39_167
*1177 FILLER_39_169
*1178 FILLER_39_17
*1179 FILLER_39_181
*1180 FILLER_39_193
*1181 FILLER_39_205
*1182 FILLER_39_217
*1183 FILLER_39_223
*1184 FILLER_39_225
*1185 FILLER_39_237
*1186 FILLER_39_249
*1187 FILLER_39_261
*1188 FILLER_39_273
*1189 FILLER_39_279
*1190 FILLER_39_28
*1191 FILLER_39_281
*1192 FILLER_39_293
*1193 FILLER_39_3
*1194 FILLER_39_38
*1195 FILLER_39_49
*1196 FILLER_39_55
*1197 FILLER_39_57
*1198 FILLER_39_69
*1199 FILLER_39_81
*1200 FILLER_39_93
*1201 FILLER_3_105
*1202 FILLER_3_111
*1203 FILLER_3_113
*1204 FILLER_3_125
*1205 FILLER_3_137
*1206 FILLER_3_149
*1207 FILLER_3_15
*1208 FILLER_3_161
*1209 FILLER_3_167
*1210 FILLER_3_169
*1211 FILLER_3_181
*1212 FILLER_3_193
*1213 FILLER_3_205
*1214 FILLER_3_217
*1215 FILLER_3_223
*1216 FILLER_3_225
*1217 FILLER_3_237
*1218 FILLER_3_249
*1219 FILLER_3_261
*1220 FILLER_3_273
*1221 FILLER_3_279
*1222 FILLER_3_281
*1223 FILLER_3_293
*1224 FILLER_3_3
*1225 FILLER_3_37
*1226 FILLER_3_49
*1227 FILLER_3_55
*1228 FILLER_3_57
*1229 FILLER_3_69
*1230 FILLER_3_81
*1231 FILLER_3_93
*1232 FILLER_40_109
*1233 FILLER_40_121
*1234 FILLER_40_133
*1235 FILLER_40_139
*1236 FILLER_40_141
*1237 FILLER_40_153
*1238 FILLER_40_165
*1239 FILLER_40_177
*1240 FILLER_40_189
*1241 FILLER_40_195
*1242 FILLER_40_197
*1243 FILLER_40_209
*1244 FILLER_40_21
*1245 FILLER_40_221
*1246 FILLER_40_233
*1247 FILLER_40_245
*1248 FILLER_40_251
*1249 FILLER_40_253
*1250 FILLER_40_265
*1251 FILLER_40_27
*1252 FILLER_40_277
*1253 FILLER_40_289
*1254 FILLER_40_297
*1255 FILLER_40_3
*1256 FILLER_40_34
*1257 FILLER_40_48
*1258 FILLER_40_58
*1259 FILLER_40_70
*1260 FILLER_40_82
*1261 FILLER_40_85
*1262 FILLER_40_9
*1263 FILLER_40_97
*1264 FILLER_41_105
*1265 FILLER_41_111
*1266 FILLER_41_113
*1267 FILLER_41_125
*1268 FILLER_41_137
*1269 FILLER_41_149
*1270 FILLER_41_15
*1271 FILLER_41_161
*1272 FILLER_41_167
*1273 FILLER_41_169
*1274 FILLER_41_181
*1275 FILLER_41_193
*1276 FILLER_41_205
*1277 FILLER_41_217
*1278 FILLER_41_223
*1279 FILLER_41_225
*1280 FILLER_41_237
*1281 FILLER_41_249
*1282 FILLER_41_261
*1283 FILLER_41_27
*1284 FILLER_41_273
*1285 FILLER_41_279
*1286 FILLER_41_281
*1287 FILLER_41_293
*1288 FILLER_41_3
*1289 FILLER_41_38
*1290 FILLER_41_50
*1291 FILLER_41_57
*1292 FILLER_41_69
*1293 FILLER_41_81
*1294 FILLER_41_93
*1295 FILLER_42_109
*1296 FILLER_42_121
*1297 FILLER_42_133
*1298 FILLER_42_139
*1299 FILLER_42_141
*1300 FILLER_42_15
*1301 FILLER_42_153
*1302 FILLER_42_165
*1303 FILLER_42_177
*1304 FILLER_42_189
*1305 FILLER_42_195
*1306 FILLER_42_197
*1307 FILLER_42_209
*1308 FILLER_42_221
*1309 FILLER_42_233
*1310 FILLER_42_245
*1311 FILLER_42_251
*1312 FILLER_42_253
*1313 FILLER_42_265
*1314 FILLER_42_27
*1315 FILLER_42_277
*1316 FILLER_42_289
*1317 FILLER_42_29
*1318 FILLER_42_297
*1319 FILLER_42_3
*1320 FILLER_42_41
*1321 FILLER_42_53
*1322 FILLER_42_65
*1323 FILLER_42_77
*1324 FILLER_42_83
*1325 FILLER_42_85
*1326 FILLER_42_97
*1327 FILLER_43_105
*1328 FILLER_43_111
*1329 FILLER_43_113
*1330 FILLER_43_125
*1331 FILLER_43_137
*1332 FILLER_43_149
*1333 FILLER_43_15
*1334 FILLER_43_161
*1335 FILLER_43_167
*1336 FILLER_43_169
*1337 FILLER_43_181
*1338 FILLER_43_193
*1339 FILLER_43_205
*1340 FILLER_43_217
*1341 FILLER_43_223
*1342 FILLER_43_225
*1343 FILLER_43_237
*1344 FILLER_43_249
*1345 FILLER_43_261
*1346 FILLER_43_27
*1347 FILLER_43_273
*1348 FILLER_43_279
*1349 FILLER_43_281
*1350 FILLER_43_293
*1351 FILLER_43_3
*1352 FILLER_43_39
*1353 FILLER_43_51
*1354 FILLER_43_55
*1355 FILLER_43_57
*1356 FILLER_43_69
*1357 FILLER_43_81
*1358 FILLER_43_93
*1359 FILLER_44_109
*1360 FILLER_44_121
*1361 FILLER_44_133
*1362 FILLER_44_139
*1363 FILLER_44_141
*1364 FILLER_44_153
*1365 FILLER_44_165
*1366 FILLER_44_177
*1367 FILLER_44_189
*1368 FILLER_44_195
*1369 FILLER_44_197
*1370 FILLER_44_209
*1371 FILLER_44_21
*1372 FILLER_44_221
*1373 FILLER_44_233
*1374 FILLER_44_245
*1375 FILLER_44_251
*1376 FILLER_44_253
*1377 FILLER_44_265
*1378 FILLER_44_27
*1379 FILLER_44_277
*1380 FILLER_44_289
*1381 FILLER_44_29
*1382 FILLER_44_297
*1383 FILLER_44_3
*1384 FILLER_44_41
*1385 FILLER_44_53
*1386 FILLER_44_65
*1387 FILLER_44_77
*1388 FILLER_44_83
*1389 FILLER_44_85
*1390 FILLER_44_9
*1391 FILLER_44_97
*1392 FILLER_45_105
*1393 FILLER_45_111
*1394 FILLER_45_113
*1395 FILLER_45_125
*1396 FILLER_45_137
*1397 FILLER_45_149
*1398 FILLER_45_161
*1399 FILLER_45_167
*1400 FILLER_45_169
*1401 FILLER_45_181
*1402 FILLER_45_193
*1403 FILLER_45_205
*1404 FILLER_45_21
*1405 FILLER_45_217
*1406 FILLER_45_223
*1407 FILLER_45_225
*1408 FILLER_45_237
*1409 FILLER_45_249
*1410 FILLER_45_261
*1411 FILLER_45_273
*1412 FILLER_45_279
*1413 FILLER_45_281
*1414 FILLER_45_293
*1415 FILLER_45_3
*1416 FILLER_45_33
*1417 FILLER_45_45
*1418 FILLER_45_53
*1419 FILLER_45_57
*1420 FILLER_45_69
*1421 FILLER_45_81
*1422 FILLER_45_9
*1423 FILLER_45_93
*1424 FILLER_46_109
*1425 FILLER_46_121
*1426 FILLER_46_13
*1427 FILLER_46_133
*1428 FILLER_46_139
*1429 FILLER_46_141
*1430 FILLER_46_153
*1431 FILLER_46_165
*1432 FILLER_46_177
*1433 FILLER_46_18
*1434 FILLER_46_189
*1435 FILLER_46_195
*1436 FILLER_46_197
*1437 FILLER_46_209
*1438 FILLER_46_221
*1439 FILLER_46_233
*1440 FILLER_46_245
*1441 FILLER_46_251
*1442 FILLER_46_253
*1443 FILLER_46_26
*1444 FILLER_46_265
*1445 FILLER_46_277
*1446 FILLER_46_289
*1447 FILLER_46_29
*1448 FILLER_46_297
*1449 FILLER_46_3
*1450 FILLER_46_41
*1451 FILLER_46_53
*1452 FILLER_46_65
*1453 FILLER_46_77
*1454 FILLER_46_83
*1455 FILLER_46_85
*1456 FILLER_46_9
*1457 FILLER_46_97
*1458 FILLER_47_105
*1459 FILLER_47_111
*1460 FILLER_47_113
*1461 FILLER_47_125
*1462 FILLER_47_137
*1463 FILLER_47_14
*1464 FILLER_47_149
*1465 FILLER_47_161
*1466 FILLER_47_167
*1467 FILLER_47_169
*1468 FILLER_47_181
*1469 FILLER_47_193
*1470 FILLER_47_205
*1471 FILLER_47_217
*1472 FILLER_47_223
*1473 FILLER_47_225
*1474 FILLER_47_237
*1475 FILLER_47_249
*1476 FILLER_47_26
*1477 FILLER_47_261
*1478 FILLER_47_273
*1479 FILLER_47_279
*1480 FILLER_47_281
*1481 FILLER_47_293
*1482 FILLER_47_3
*1483 FILLER_47_38
*1484 FILLER_47_50
*1485 FILLER_47_57
*1486 FILLER_47_69
*1487 FILLER_47_81
*1488 FILLER_47_9
*1489 FILLER_47_93
*1490 FILLER_48_109
*1491 FILLER_48_121
*1492 FILLER_48_133
*1493 FILLER_48_139
*1494 FILLER_48_141
*1495 FILLER_48_15
*1496 FILLER_48_153
*1497 FILLER_48_165
*1498 FILLER_48_177
*1499 FILLER_48_189
*1500 FILLER_48_195
*1501 FILLER_48_197
*1502 FILLER_48_209
*1503 FILLER_48_221
*1504 FILLER_48_233
*1505 FILLER_48_245
*1506 FILLER_48_251
*1507 FILLER_48_253
*1508 FILLER_48_265
*1509 FILLER_48_27
*1510 FILLER_48_277
*1511 FILLER_48_289
*1512 FILLER_48_29
*1513 FILLER_48_297
*1514 FILLER_48_3
*1515 FILLER_48_41
*1516 FILLER_48_53
*1517 FILLER_48_65
*1518 FILLER_48_77
*1519 FILLER_48_83
*1520 FILLER_48_85
*1521 FILLER_48_97
*1522 FILLER_49_105
*1523 FILLER_49_111
*1524 FILLER_49_113
*1525 FILLER_49_125
*1526 FILLER_49_137
*1527 FILLER_49_149
*1528 FILLER_49_15
*1529 FILLER_49_161
*1530 FILLER_49_167
*1531 FILLER_49_169
*1532 FILLER_49_181
*1533 FILLER_49_193
*1534 FILLER_49_205
*1535 FILLER_49_217
*1536 FILLER_49_223
*1537 FILLER_49_225
*1538 FILLER_49_237
*1539 FILLER_49_249
*1540 FILLER_49_261
*1541 FILLER_49_27
*1542 FILLER_49_273
*1543 FILLER_49_279
*1544 FILLER_49_281
*1545 FILLER_49_293
*1546 FILLER_49_3
*1547 FILLER_49_39
*1548 FILLER_49_51
*1549 FILLER_49_55
*1550 FILLER_49_57
*1551 FILLER_49_69
*1552 FILLER_49_81
*1553 FILLER_49_93
*1554 FILLER_4_109
*1555 FILLER_4_121
*1556 FILLER_4_133
*1557 FILLER_4_139
*1558 FILLER_4_141
*1559 FILLER_4_153
*1560 FILLER_4_165
*1561 FILLER_4_177
*1562 FILLER_4_189
*1563 FILLER_4_195
*1564 FILLER_4_197
*1565 FILLER_4_209
*1566 FILLER_4_221
*1567 FILLER_4_233
*1568 FILLER_4_24
*1569 FILLER_4_245
*1570 FILLER_4_251
*1571 FILLER_4_253
*1572 FILLER_4_265
*1573 FILLER_4_277
*1574 FILLER_4_289
*1575 FILLER_4_297
*1576 FILLER_4_3
*1577 FILLER_4_45
*1578 FILLER_4_57
*1579 FILLER_4_69
*1580 FILLER_4_7
*1581 FILLER_4_81
*1582 FILLER_4_85
*1583 FILLER_4_97
*1584 FILLER_50_109
*1585 FILLER_50_121
*1586 FILLER_50_133
*1587 FILLER_50_139
*1588 FILLER_50_141
*1589 FILLER_50_15
*1590 FILLER_50_153
*1591 FILLER_50_165
*1592 FILLER_50_177
*1593 FILLER_50_189
*1594 FILLER_50_195
*1595 FILLER_50_197
*1596 FILLER_50_209
*1597 FILLER_50_221
*1598 FILLER_50_233
*1599 FILLER_50_245
*1600 FILLER_50_251
*1601 FILLER_50_253
*1602 FILLER_50_265
*1603 FILLER_50_27
*1604 FILLER_50_277
*1605 FILLER_50_289
*1606 FILLER_50_29
*1607 FILLER_50_297
*1608 FILLER_50_3
*1609 FILLER_50_41
*1610 FILLER_50_53
*1611 FILLER_50_65
*1612 FILLER_50_77
*1613 FILLER_50_83
*1614 FILLER_50_85
*1615 FILLER_50_97
*1616 FILLER_51_105
*1617 FILLER_51_111
*1618 FILLER_51_113
*1619 FILLER_51_125