*SPEF "ieee 1481-1999"
*DESIGN "aidan_McCoy"
*DATE "11:11:11 Fri 11 11, 1111"
*VENDOR "OpenRCX"
*PROGRAM "Parallel Extraction"
*VERSION "1.0"
*DESIGN_FLOW "NAME_SCOPE LOCAL" "PIN_CAP NONE"
*DIVIDER /
*DELIMITER :
*BUS_DELIMITER []
*T_UNIT 1 NS
*C_UNIT 1 PF
*R_UNIT 1 OHM
*L_UNIT 1 HENRY

*NAME_MAP
*1 io_in[0]
*2 io_in[1]
*3 io_in[2]
*4 io_in[3]
*5 io_in[4]
*6 io_in[5]
*7 io_in[6]
*8 io_in[7]
*9 io_out[0]
*10 io_out[1]
*11 io_out[2]
*12 io_out[3]
*13 io_out[4]
*14 io_out[5]
*15 io_out[6]
*16 io_out[7]
*19 _072_
*20 _073_
*21 _074_
*22 _075_
*23 _076_
*24 _077_
*25 _078_
*26 _079_
*27 _080_
*28 _081_
*29 _082_
*30 _083_
*31 _084_
*32 _085_
*33 _086_
*34 _087_
*35 _088_
*36 _089_
*37 _090_
*38 _091_
*39 _092_
*40 _093_
*41 _094_
*42 _095_
*43 _096_
*44 _097_
*45 _098_
*46 _099_
*47 _100_
*48 _101_
*49 _102_
*50 _103_
*51 _104_
*52 _105_
*53 _106_
*54 _107_
*55 _108_
*56 _109_
*57 _110_
*58 _111_
*59 _112_
*60 _113_
*61 _114_
*62 _115_
*63 _116_
*64 _117_
*65 _118_
*66 _119_
*67 _120_
*68 _121_
*69 _122_
*70 _123_
*71 _124_
*72 _125_
*73 _126_
*74 _127_
*75 _128_
*76 _129_
*77 _130_
*78 _131_
*79 _132_
*80 _133_
*81 _134_
*82 _135_
*83 _136_
*84 _137_
*85 _138_
*86 _139_
*87 _140_
*88 _141_
*89 _142_
*90 _143_
*91 _144_
*92 _145_
*93 _146_
*94 _147_
*95 _148_
*96 _149_
*97 _150_
*98 _151_
*99 _152_
*100 _153_
*101 _154_
*102 _155_
*103 _156_
*104 _157_
*105 _158_
*106 _159_
*107 _160_
*108 _161_
*109 _162_
*110 _163_
*111 _164_
*112 _165_
*113 _166_
*114 _167_
*115 _168_
*116 _169_
*117 _170_
*118 _171_
*119 _172_
*120 _173_
*121 _174_
*122 _175_
*123 _176_
*124 _177_
*125 _178_
*126 _179_
*127 _180_
*128 _181_
*129 _182_
*130 _183_
*131 _184_
*132 _185_
*133 _186_
*134 _187_
*135 _188_
*136 _189_
*137 _190_
*138 _191_
*139 _192_
*140 _193_
*141 _194_
*142 _195_
*143 _196_
*144 _197_
*145 _198_
*146 _199_
*147 _200_
*148 _201_
*149 _202_
*150 _203_
*151 _204_
*152 _205_
*153 _206_
*154 _207_
*155 _208_
*156 _209_
*157 _210_
*158 _211_
*159 _212_
*160 _213_
*161 _214_
*162 _215_
*163 _216_
*164 _217_
*165 _218_
*166 _219_
*167 _220_
*168 _221_
*169 _222_
*170 _223_
*171 _224_
*172 _225_
*173 _226_
*174 _227_
*175 _228_
*176 _229_
*177 _230_
*178 _231_
*179 _232_
*180 _233_
*181 _234_
*182 _235_
*183 _236_
*184 _237_
*185 _238_
*186 _239_
*187 _240_
*188 _241_
*189 _242_
*190 _243_
*191 _244_
*192 _245_
*193 _246_
*194 _247_
*195 _248_
*196 _249_
*197 _250_
*198 _251_
*199 _252_
*200 _253_
*201 _254_
*202 _255_
*203 _256_
*204 _257_
*205 _258_
*206 _259_
*207 _260_
*208 _261_
*209 _262_
*210 _263_
*211 _264_
*212 _265_
*213 _266_
*214 _267_
*215 _268_
*216 _269_
*217 _270_
*218 _271_
*219 _272_
*220 _273_
*221 _274_
*222 _275_
*223 _276_
*224 _277_
*225 _278_
*226 _279_
*227 _280_
*228 _281_
*229 _282_
*230 _283_
*231 _284_
*232 _285_
*233 _286_
*234 _287_
*235 _288_
*236 _289_
*237 _290_
*238 _291_
*239 _292_
*240 _293_
*241 _294_
*242 _295_
*243 _296_
*244 _297_
*245 _298_
*246 _299_
*247 _300_
*248 _301_
*249 _302_
*250 _303_
*251 _304_
*252 _305_
*253 _306_
*254 _307_
*255 _308_
*256 _309_
*257 _310_
*258 _311_
*259 _312_
*260 _313_
*261 _314_
*262 _315_
*263 _316_
*264 _317_
*265 _318_
*266 _319_
*267 _320_
*268 _321_
*269 _322_
*270 _323_
*271 _324_
*272 _325_
*273 _326_
*274 _327_
*275 _328_
*276 _329_
*277 _330_
*278 _331_
*279 _332_
*280 _333_
*281 _334_
*282 _335_
*283 _336_
*284 _337_
*285 _338_
*286 _339_
*287 _340_
*288 _341_
*289 _342_
*290 _343_
*291 _344_
*292 _345_
*293 _346_
*294 _347_
*295 _348_
*296 _349_
*297 _350_
*298 _351_
*299 _352_
*300 _353_
*301 _354_
*302 _355_
*303 _356_
*304 _357_
*305 _358_
*306 _359_
*307 _360_
*308 _361_
*309 _362_
*310 _363_
*311 _364_
*312 _365_
*313 _366_
*314 _367_
*315 _368_
*316 _369_
*317 _370_
*318 _371_
*319 _372_
*320 _373_
*321 _374_
*322 _375_
*323 _376_
*324 _377_
*325 _378_
*326 _379_
*327 _380_
*328 _381_
*329 _382_
*330 _383_
*331 _384_
*332 _385_
*333 _386_
*334 _387_
*335 _388_
*336 _389_
*337 _390_
*338 _391_
*339 _392_
*340 _393_
*341 _394_
*342 _395_
*343 _396_
*344 _397_
*345 _398_
*346 _399_
*347 _400_
*348 _401_
*349 _402_
*350 _403_
*351 _404_
*352 _405_
*353 _406_
*354 _407_
*355 _408_
*356 _409_
*357 _410_
*358 _411_
*359 _412_
*360 _413_
*361 _414_
*362 _415_
*363 _416_
*364 _417_
*365 _418_
*366 _419_
*367 _420_
*368 _421_
*369 _422_
*370 _423_
*371 _424_
*372 _425_
*373 _426_
*374 _427_
*375 _428_
*376 _429_
*377 _430_
*378 _431_
*379 _432_
*380 _433_
*381 _434_
*382 _435_
*383 _436_
*384 _437_
*385 _438_
*386 _439_
*387 _440_
*388 _441_
*389 _442_
*390 _443_
*391 _444_
*392 _445_
*393 _446_
*394 _447_
*395 adder\.in\[0\]
*396 adder\.in\[1\]
*397 adder\.in\[2\]
*398 adder\.in\[3\]
*399 adder\.in\[4\]
*400 adder\.in\[5\]
*401 adder\.in\[6\]
*402 adder\.in\[7\]
*403 branchBlock\.x8\[0\]
*404 branchBlock\.x8\[1\]
*405 branchBlock\.x8\[2\]
*406 branchBlock\.x8\[3\]
*407 branchBlock\.x8\[4\]
*408 branchBlock\.x8\[5\]
*409 branchBlock\.x8\[6\]
*410 branchBlock\.x8\[7\]
*411 clknet_0__421_
*412 clknet_0__426_
*413 clknet_0__431_
*414 clknet_0__432_
*415 clknet_0__433_
*416 clknet_0__434_
*417 clknet_0__435_
*418 clknet_0__436_
*419 clknet_0__437_
*420 clknet_0__438_
*421 clknet_0__439_
*422 clknet_0__440_
*423 clknet_0__441_
*424 clknet_0__442_
*425 clknet_0__443_
*426 clknet_0__444_
*427 clknet_0__445_
*428 clknet_0__446_
*429 clknet_0__447_
*430 clknet_0_io_in[0]
*431 clknet_1_0__leaf__421_
*432 clknet_1_0__leaf__426_
*433 clknet_1_0__leaf__431_
*434 clknet_1_0__leaf__432_
*435 clknet_1_0__leaf__433_
*436 clknet_1_0__leaf__434_
*437 clknet_1_0__leaf__435_
*438 clknet_1_0__leaf__436_
*439 clknet_1_0__leaf__437_
*440 clknet_1_0__leaf__438_
*441 clknet_1_0__leaf__439_
*442 clknet_1_0__leaf__440_
*443 clknet_1_0__leaf__441_
*444 clknet_1_0__leaf__442_
*445 clknet_1_0__leaf__443_
*446 clknet_1_0__leaf__444_
*447 clknet_1_0__leaf__445_
*448 clknet_1_0__leaf__446_
*449 clknet_1_0__leaf__447_
*450 clknet_1_0__leaf_io_in[0]
*451 clknet_1_1__leaf__421_
*452 clknet_1_1__leaf__426_
*453 clknet_1_1__leaf__431_
*454 clknet_1_1__leaf__432_
*455 clknet_1_1__leaf__433_
*456 clknet_1_1__leaf__434_
*457 clknet_1_1__leaf__435_
*458 clknet_1_1__leaf__436_
*459 clknet_1_1__leaf__437_
*460 clknet_1_1__leaf__438_
*461 clknet_1_1__leaf__439_
*462 clknet_1_1__leaf__440_
*463 clknet_1_1__leaf__441_
*464 clknet_1_1__leaf__442_
*465 clknet_1_1__leaf__443_
*466 clknet_1_1__leaf__444_
*467 clknet_1_1__leaf__445_
*468 clknet_1_1__leaf__446_
*469 clknet_1_1__leaf__447_
*470 clknet_1_1__leaf_io_in[0]
*471 net1
*472 net10
*473 net11
*474 net12
*475 net13
*476 net14
*477 net15
*478 net16
*479 net17
*480 net18
*481 net19
*482 net2
*483 net20
*484 net21
*485 net22
*486 net23
*487 net24
*488 net25
*489 net26
*490 net27
*491 net28
*492 net29
*493 net3
*494 net30
*495 net31
*496 net32
*497 net33
*498 net34
*499 net35
*500 net36
*501 net37
*502 net38
*503 net39
*504 net4
*505 net40
*506 net41
*507 net42
*508 net43
*509 net44
*510 net45
*511 net46
*512 net47
*513 net48
*514 net49
*515 net5
*516 net50
*517 net51
*518 net52
*519 net53
*520 net54
*521 net55
*522 net56
*523 net57
*524 net58
*525 net59
*526 net6
*527 net60
*528 net61
*529 net62
*530 net63
*531 net64
*532 net65
*533 net66
*534 net67
*535 net68
*536 net69
*537 net7
*538 net70
*539 net71
*540 net72
*541 net73
*542 net74
*543 net75
*544 net76
*545 net77
*546 net78
*547 net79
*548 net8
*549 net80
*550 net81
*551 net82
*552 net9
*553 regBlock\.registers\[1\]\[0\]
*554 regBlock\.registers\[1\]\[1\]
*555 regBlock\.registers\[1\]\[2\]
*556 regBlock\.registers\[1\]\[3\]
*557 regBlock\.registers\[1\]\[4\]
*558 regBlock\.registers\[1\]\[5\]
*559 regBlock\.registers\[1\]\[6\]
*560 regBlock\.registers\[1\]\[7\]
*561 regBlock\.registers\[2\]\[0\]
*562 regBlock\.registers\[2\]\[1\]
*563 regBlock\.registers\[2\]\[2\]
*564 regBlock\.registers\[2\]\[3\]
*565 regBlock\.registers\[2\]\[4\]
*566 regBlock\.registers\[2\]\[5\]
*567 regBlock\.registers\[2\]\[6\]
*568 regBlock\.registers\[2\]\[7\]
*569 regBlock\.registers\[3\]\[0\]
*570 regBlock\.registers\[3\]\[1\]
*571 regBlock\.registers\[3\]\[2\]
*572 regBlock\.registers\[3\]\[3\]
*573 regBlock\.registers\[3\]\[4\]
*574 regBlock\.registers\[3\]\[5\]
*575 regBlock\.registers\[3\]\[6\]
*576 regBlock\.registers\[3\]\[7\]
*577 regBlock\.registers\[4\]\[0\]
*578 regBlock\.registers\[4\]\[1\]
*579 regBlock\.registers\[4\]\[2\]
*580 regBlock\.registers\[4\]\[3\]
*581 regBlock\.registers\[4\]\[4\]
*582 regBlock\.registers\[4\]\[5\]
*583 regBlock\.registers\[4\]\[6\]
*584 regBlock\.registers\[4\]\[7\]
*585 regBlock\.registers\[5\]\[0\]
*586 regBlock\.registers\[5\]\[1\]
*587 regBlock\.registers\[5\]\[2\]
*588 regBlock\.registers\[5\]\[3\]
*589 regBlock\.registers\[5\]\[4\]
*590 regBlock\.registers\[5\]\[5\]
*591 regBlock\.registers\[5\]\[6\]
*592 regBlock\.registers\[5\]\[7\]
*593 regBlock\.registers\[6\]\[0\]
*594 regBlock\.registers\[6\]\[1\]
*595 regBlock\.registers\[6\]\[2\]
*596 regBlock\.registers\[6\]\[3\]
*597 regBlock\.registers\[6\]\[4\]
*598 regBlock\.registers\[6\]\[5\]
*599 regBlock\.registers\[6\]\[6\]
*600 regBlock\.registers\[6\]\[7\]
*601 regBlock\.registers\[7\]\[0\]
*602 regBlock\.registers\[7\]\[1\]
*603 regBlock\.registers\[7\]\[2\]
*604 regBlock\.registers\[7\]\[3\]
*605 regBlock\.registers\[7\]\[4\]
*606 regBlock\.registers\[7\]\[5\]
*607 regBlock\.registers\[7\]\[6\]
*608 regBlock\.registers\[7\]\[7\]
*609 ANTENNA_0
*610 ANTENNA_1
*611 ANTENNA_10
*612 ANTENNA_11
*613 ANTENNA_12
*614 ANTENNA_2
*615 ANTENNA_3
*616 ANTENNA_4
*617 ANTENNA_5
*618 ANTENNA_6
*619 ANTENNA_7
*620 ANTENNA_8
*621 ANTENNA_9
*622 FILLER_0_109
*623 FILLER_0_113
*624 FILLER_0_125
*625 FILLER_0_137
*626 FILLER_0_141
*627 FILLER_0_153
*628 FILLER_0_165
*629 FILLER_0_169
*630 FILLER_0_181
*631 FILLER_0_193
*632 FILLER_0_197
*633 FILLER_0_209
*634 FILLER_0_21
*635 FILLER_0_221
*636 FILLER_0_225
*637 FILLER_0_237
*638 FILLER_0_249
*639 FILLER_0_25
*640 FILLER_0_253
*641 FILLER_0_265
*642 FILLER_0_277
*643 FILLER_0_281
*644 FILLER_0_29
*645 FILLER_0_293
*646 FILLER_0_3
*647 FILLER_0_52
*648 FILLER_0_73
*649 FILLER_0_81
*650 FILLER_0_85
*651 FILLER_0_97
*652 FILLER_10_107
*653 FILLER_10_113
*654 FILLER_10_125
*655 FILLER_10_137
*656 FILLER_10_151
*657 FILLER_10_164
*658 FILLER_10_176
*659 FILLER_10_188
*660 FILLER_10_197
*661 FILLER_10_209
*662 FILLER_10_221
*663 FILLER_10_233
*664 FILLER_10_24
*665 FILLER_10_245
*666 FILLER_10_251
*667 FILLER_10_253
*668 FILLER_10_265
*669 FILLER_10_277
*670 FILLER_10_289
*671 FILLER_10_297
*672 FILLER_10_3
*673 FILLER_10_32
*674 FILLER_10_52
*675 FILLER_10_58
*676 FILLER_10_7
*677 FILLER_10_79
*678 FILLER_10_83
*679 FILLER_10_88
*680 FILLER_10_95
*681 FILLER_11_107
*682 FILLER_11_11
*683 FILLER_11_111
*684 FILLER_11_113
*685 FILLER_11_125
*686 FILLER_11_138
*687 FILLER_11_150
*688 FILLER_11_154
*689 FILLER_11_164
*690 FILLER_11_169
*691 FILLER_11_181
*692 FILLER_11_193
*693 FILLER_11_205
*694 FILLER_11_217
*695 FILLER_11_223
*696 FILLER_11_225
*697 FILLER_11_237
*698 FILLER_11_249
*699 FILLER_11_261
*700 FILLER_11_273
*701 FILLER_11_279
*702 FILLER_11_281
*703 FILLER_11_293
*704 FILLER_11_3
*705 FILLER_11_31
*706 FILLER_11_52
*707 FILLER_11_7
*708 FILLER_11_73
*709 FILLER_11_83
*710 FILLER_11_95
*711 FILLER_12_118
*712 FILLER_12_131
*713 FILLER_12_139
*714 FILLER_12_151
*715 FILLER_12_162
*716 FILLER_12_174
*717 FILLER_12_186
*718 FILLER_12_194
*719 FILLER_12_197
*720 FILLER_12_209
*721 FILLER_12_221
*722 FILLER_12_233
*723 FILLER_12_24
*724 FILLER_12_245
*725 FILLER_12_251
*726 FILLER_12_253
*727 FILLER_12_265
*728 FILLER_12_277
*729 FILLER_12_289
*730 FILLER_12_297
*731 FILLER_12_3
*732 FILLER_12_32
*733 FILLER_12_38
*734 FILLER_12_56
*735 FILLER_12_63
*736 FILLER_12_7
*737 FILLER_12_70
*738 FILLER_12_77
*739 FILLER_12_83
*740 FILLER_12_88
*741 FILLER_12_96
*742 FILLER_13_105
*743 FILLER_13_11
*744 FILLER_13_111
*745 FILLER_13_113
*746 FILLER_13_121
*747 FILLER_13_133
*748 FILLER_13_145
*749 FILLER_13_153
*750 FILLER_13_163
*751 FILLER_13_167
*752 FILLER_13_169
*753 FILLER_13_181
*754 FILLER_13_193
*755 FILLER_13_205
*756 FILLER_13_217
*757 FILLER_13_223
*758 FILLER_13_225
*759 FILLER_13_237
*760 FILLER_13_249
*761 FILLER_13_261
*762 FILLER_13_273
*763 FILLER_13_279
*764 FILLER_13_281
*765 FILLER_13_293
*766 FILLER_13_3
*767 FILLER_13_35
*768 FILLER_13_42
*769 FILLER_13_49
*770 FILLER_13_55
*771 FILLER_13_60
*772 FILLER_13_67
*773 FILLER_13_7
*774 FILLER_13_74
*775 FILLER_13_81
*776 FILLER_13_93
*777 FILLER_14_105
*778 FILLER_14_109
*779 FILLER_14_119
*780 FILLER_14_127
*781 FILLER_14_133
*782 FILLER_14_139
*783 FILLER_14_141
*784 FILLER_14_153
*785 FILLER_14_159
*786 FILLER_14_164
*787 FILLER_14_176
*788 FILLER_14_188
*789 FILLER_14_206
*790 FILLER_14_218
*791 FILLER_14_230
*792 FILLER_14_24
*793 FILLER_14_242
*794 FILLER_14_250
*795 FILLER_14_253
*796 FILLER_14_265
*797 FILLER_14_277
*798 FILLER_14_289
*799 FILLER_14_297
*800 FILLER_14_3
*801 FILLER_14_39
*802 FILLER_14_65
*803 FILLER_14_72
*804 FILLER_14_79
*805 FILLER_14_83
*806 FILLER_14_85
*807 FILLER_14_93
*808 FILLER_15_107
*809 FILLER_15_111
*810 FILLER_15_119
*811 FILLER_15_127
*812 FILLER_15_132
*813 FILLER_15_138
*814 FILLER_15_148
*815 FILLER_15_15
*816 FILLER_15_157
*817 FILLER_15_165
*818 FILLER_15_190
*819 FILLER_15_203
*820 FILLER_15_215
*821 FILLER_15_223
*822 FILLER_15_225
*823 FILLER_15_237
*824 FILLER_15_249
*825 FILLER_15_261
*826 FILLER_15_273
*827 FILLER_15_279
*828 FILLER_15_281
*829 FILLER_15_293
*830 FILLER_15_3
*831 FILLER_15_36
*832 FILLER_15_43
*833 FILLER_15_50
*834 FILLER_15_74
*835 FILLER_15_81
*836 FILLER_15_88
*837 FILLER_15_9
*838 FILLER_15_99
*839 FILLER_16_101
*840 FILLER_16_115
*841 FILLER_16_123
*842 FILLER_16_131
*843 FILLER_16_139
*844 FILLER_16_141
*845 FILLER_16_154
*846 FILLER_16_164
*847 FILLER_16_171
*848 FILLER_16_184
*849 FILLER_16_202
*850 FILLER_16_214
*851 FILLER_16_226
*852 FILLER_16_238
*853 FILLER_16_24
*854 FILLER_16_250
*855 FILLER_16_253
*856 FILLER_16_265
*857 FILLER_16_277
*858 FILLER_16_289
*859 FILLER_16_29
*860 FILLER_16_297
*861 FILLER_16_3
*862 FILLER_16_35
*863 FILLER_16_43
*864 FILLER_16_65
*865 FILLER_16_78
*866 FILLER_17_105
*867 FILLER_17_111
*868 FILLER_17_12
*869 FILLER_17_120
*870 FILLER_17_130
*871 FILLER_17_145
*872 FILLER_17_157
*873 FILLER_17_164
*874 FILLER_17_169
*875 FILLER_17_173
*876 FILLER_17_186
*877 FILLER_17_198
*878 FILLER_17_210
*879 FILLER_17_222
*880 FILLER_17_225
*881 FILLER_17_237
*882 FILLER_17_249
*883 FILLER_17_261
*884 FILLER_17_273
*885 FILLER_17_279
*886 FILLER_17_281
*887 FILLER_17_293
*888 FILLER_17_3
*889 FILLER_17_36
*890 FILLER_17_43
*891 FILLER_17_52
*892 FILLER_17_60
*893 FILLER_17_69
*894 FILLER_17_89
*895 FILLER_18_101
*896 FILLER_18_112
*897 FILLER_18_120
*898 FILLER_18_131
*899 FILLER_18_139
*900 FILLER_18_141
*901 FILLER_18_148
*902 FILLER_18_156
*903 FILLER_18_163
*904 FILLER_18_170
*905 FILLER_18_183
*906 FILLER_18_195
*907 FILLER_18_197
*908 FILLER_18_209
*909 FILLER_18_221
*910 FILLER_18_233
*911 FILLER_18_24
*912 FILLER_18_245
*913 FILLER_18_251
*914 FILLER_18_253
*915 FILLER_18_265
*916 FILLER_18_277
*917 FILLER_18_289
*918 FILLER_18_29
*919 FILLER_18_297
*920 FILLER_18_3
*921 FILLER_18_33
*922 FILLER_18_40
*923 FILLER_18_44
*924 FILLER_18_65
*925 FILLER_18_80
*926 FILLER_19_101
*927 FILLER_19_109
*928 FILLER_19_123
*929 FILLER_19_13
*930 FILLER_19_131
*931 FILLER_19_142
*932 FILLER_19_155
*933 FILLER_19_164
*934 FILLER_19_178
*935 FILLER_19_19
*936 FILLER_19_195
*937 FILLER_19_202
*938 FILLER_19_208
*939 FILLER_19_213
*940 FILLER_19_220
*941 FILLER_19_225
*942 FILLER_19_237
*943 FILLER_19_249
*944 FILLER_19_261
*945 FILLER_19_273
*946 FILLER_19_279
*947 FILLER_19_281
*948 FILLER_19_293
*949 FILLER_19_40
*950 FILLER_19_49
*951 FILLER_19_55
*952 FILLER_19_60
*953 FILLER_19_64
*954 FILLER_19_81
*955 FILLER_1_101
*956 FILLER_1_109
*957 FILLER_1_113
*958 FILLER_1_12
*959 FILLER_1_125
*960 FILLER_1_137
*961 FILLER_1_149
*962 FILLER_1_161
*963 FILLER_1_167
*964 FILLER_1_169
*965 FILLER_1_181
*966 FILLER_1_193
*967 FILLER_1_205
*968 FILLER_1_217
*969 FILLER_1_223
*970 FILLER_1_225
*971 FILLER_1_237
*972 FILLER_1_249
*973 FILLER_1_261
*974 FILLER_1_273
*975 FILLER_1_279
*976 FILLER_1_281
*977 FILLER_1_293
*978 FILLER_1_3
*979 FILLER_1_36
*980 FILLER_1_43
*981 FILLER_1_50
*982 FILLER_1_60
*983 FILLER_1_64
*984 FILLER_1_81
*985 FILLER_20_101
*986 FILLER_20_109
*987 FILLER_20_118
*988 FILLER_20_129
*989 FILLER_20_136
*990 FILLER_20_141
*991 FILLER_20_154
*992 FILLER_20_167
*993 FILLER_20_192
*994 FILLER_20_200
*995 FILLER_20_208
*996 FILLER_20_214
*997 FILLER_20_222
*998 FILLER_20_227
*999 FILLER_20_239
*1000 FILLER_20_24
*1001 FILLER_20_251
*1002 FILLER_20_253
*1003 FILLER_20_265
*1004 FILLER_20_277
*1005 FILLER_20_289
*1006 FILLER_20_297
*1007 FILLER_20_3
*1008 FILLER_20_45
*1009 FILLER_20_69
*1010 FILLER_20_80
*1011 FILLER_21_107
*1012 FILLER_21_111
*1013 FILLER_21_120
*1014 FILLER_21_128
*1015 FILLER_21_140
*1016 FILLER_21_148
*1017 FILLER_21_15
*1018 FILLER_21_159
*1019 FILLER_21_167
*1020 FILLER_21_169
*1021 FILLER_21_177
*1022 FILLER_21_188
*1023 FILLER_21_195
*1024 FILLER_21_212
*1025 FILLER_21_219
*1026 FILLER_21_223
*1027 FILLER_21_228
*1028 FILLER_21_236
*1029 FILLER_21_246
*1030 FILLER_21_258
*1031 FILLER_21_270
*1032 FILLER_21_278
*1033 FILLER_21_281
*1034 FILLER_21_293
*1035 FILLER_21_36
*1036 FILLER_21_40
*1037 FILLER_21_44
*1038 FILLER_21_52
*1039 FILLER_21_7
*1040 FILLER_21_73
*1041 FILLER_21_93
*1042 FILLER_22_108
*1043 FILLER_22_119
*1044 FILLER_22_131
*1045 FILLER_22_139
*1046 FILLER_22_141
*1047 FILLER_22_153
*1048 FILLER_22_165
*1049 FILLER_22_175
*1050 FILLER_22_183
*1051 FILLER_22_190
*1052 FILLER_22_197
*1053 FILLER_22_205
*1054 FILLER_22_218
*1055 FILLER_22_230
*1056 FILLER_22_24
*1057 FILLER_22_242
*1058 FILLER_22_250
*1059 FILLER_22_262
*1060 FILLER_22_274
*1061 FILLER_22_286
*1062 FILLER_22_29
*1063 FILLER_22_298
*1064 FILLER_22_3
*1065 FILLER_22_33
*1066 FILLER_22_53
*1067 FILLER_22_73
*1068 FILLER_22_80
*1069 FILLER_22_95
*1070 FILLER_23_105
*1071 FILLER_23_111
*1072 FILLER_23_113
*1073 FILLER_23_123
*1074 FILLER_23_131
*1075 FILLER_23_139
*1076 FILLER_23_147
*1077 FILLER_23_156
*1078 FILLER_23_164
*1079 FILLER_23_169
*1080 FILLER_23_180
*1081 FILLER_23_188
*1082 FILLER_23_198
*1083 FILLER_23_211
*1084 FILLER_23_223
*1085 FILLER_23_234
*1086 FILLER_23_247
*1087 FILLER_23_259
*1088 FILLER_23_27
*1089 FILLER_23_271
*1090 FILLER_23_279
*1091 FILLER_23_281
*1092 FILLER_23_293
*1093 FILLER_23_3
*1094 FILLER_23_47
*1095 FILLER_23_55
*1096 FILLER_23_73
*1097 FILLER_23_93
*1098 FILLER_24_111
*1099 FILLER_24_124
*1100 FILLER_24_134
*1101 FILLER_24_147
*1102 FILLER_24_160
*1103 FILLER_24_171
*1104 FILLER_24_179
*1105 FILLER_24_185
*1106 FILLER_24_190
*1107 FILLER_24_197
*1108 FILLER_24_205
*1109 FILLER_24_211
*1110 FILLER_24_221
*1111 FILLER_24_225
*1112 FILLER_24_229
*1113 FILLER_24_236
*1114 FILLER_24_24
*1115 FILLER_24_248
*1116 FILLER_24_253
*1117 FILLER_24_261
*1118 FILLER_24_271
*1119 FILLER_24_283
*1120 FILLER_24_29
*1121 FILLER_24_295
*1122 FILLER_24_3
*1123 FILLER_24_53
*1124 FILLER_24_7
*1125 FILLER_24_73
*1126 FILLER_24_80
*1127 FILLER_24_90
*1128 FILLER_25_106
*1129 FILLER_25_11
*1130 FILLER_25_118
*1131 FILLER_25_128
*1132 FILLER_25_135
*1133 FILLER_25_139
*1134 FILLER_25_148
*1135 FILLER_25_15
*1136 FILLER_25_152
*1137 FILLER_25_156
*1138 FILLER_25_164
*1139 FILLER_25_178
*1140 FILLER_25_186
*1141 FILLER_25_195
*1142 FILLER_25_199
*1143 FILLER_25_209
*1144 FILLER_25_221
*1145 FILLER_25_234
*1146 FILLER_25_246
*1147 FILLER_25_254
*1148 FILLER_25_264
*1149 FILLER_25_276
*1150 FILLER_25_291
*1151 FILLER_25_3
*1152 FILLER_25_32
*1153 FILLER_25_52
*1154 FILLER_25_73
*1155 FILLER_25_86
*1156 FILLER_25_96
*1157 FILLER_26_101
*1158 FILLER_26_118
*1159 FILLER_26_126
*1160 FILLER_26_132
*1161 FILLER_26_136
*1162 FILLER_26_147
*1163 FILLER_26_151
*1164 FILLER_26_156
*1165 FILLER_26_170
*1166 FILLER_26_186
*1167 FILLER_26_194
*1168 FILLER_26_202
*1169 FILLER_26_227
*1170 FILLER_26_24
*1171 FILLER_26_240
*1172 FILLER_26_253
*1173 FILLER_26_265
*1174 FILLER_26_277
*1175 FILLER_26_289
*1176 FILLER_26_29
*1177 FILLER_26_297
*1178 FILLER_26_3
*1179 FILLER_26_49
*1180 FILLER_26_73
*1181 FILLER_26_80
*1182 FILLER_26_92
*1183 FILLER_27_101
*1184 FILLER_27_109
*1185 FILLER_27_113
*1186 FILLER_27_124
*1187 FILLER_27_134
*1188 FILLER_27_148
*1189 FILLER_27_156
*1190 FILLER_27_163
*1191 FILLER_27_167
*1192 FILLER_27_172
*1193 FILLER_27_185
*1194 FILLER_27_192
*1195 FILLER_27_196
*1196 FILLER_27_218
*1197 FILLER_27_235
*1198 FILLER_27_247
*1199 FILLER_27_259
*1200 FILLER_27_271
*1201 FILLER_27_279
*1202 FILLER_27_28
*1203 FILLER_27_281
*1204 FILLER_27_293
*1205 FILLER_27_3
*1206 FILLER_27_52
*1207 FILLER_27_60
*1208 FILLER_27_64
*1209 FILLER_27_7
*1210 FILLER_27_81
*1211 FILLER_27_90
*1212 FILLER_28_109
*1213 FILLER_28_113
*1214 FILLER_28_118
*1215 FILLER_28_127
*1216 FILLER_28_136
*1217 FILLER_28_149
*1218 FILLER_28_157
*1219 FILLER_28_164
*1220 FILLER_28_179
*1221 FILLER_28_192
*1222 FILLER_28_197
*1223 FILLER_28_212
*1224 FILLER_28_224
*1225 FILLER_28_234
*1226 FILLER_28_24
*1227 FILLER_28_246
*1228 FILLER_28_253
*1229 FILLER_28_265
*1230 FILLER_28_277
*1231 FILLER_28_289
*1232 FILLER_28_297
*1233 FILLER_28_3
*1234 FILLER_28_32
*1235 FILLER_28_36
*1236 FILLER_28_40
*1237 FILLER_28_44
*1238 FILLER_28_65
*1239 FILLER_28_7
*1240 FILLER_28_72
*1241 FILLER_28_79
*1242 FILLER_28_83
*1243 FILLER_28_85
*1244 FILLER_28_93
*1245 FILLER_28_98
*1246 FILLER_29_105
*1247 FILLER_29_111
*1248 FILLER_29_113
*1249 FILLER_29_118
*1250 FILLER_29_124
*1251 FILLER_29_133
*1252 FILLER_29_145
*1253 FILLER_29_154
*1254 FILLER_29_164
*1255 FILLER_29_173
*1256 FILLER_29_200
*1257 FILLER_29_213
*1258 FILLER_29_221
*1259 FILLER_29_225
*1260 FILLER_29_237
*1261 FILLER_29_249
*1262 FILLER_29_261
*1263 FILLER_29_273
*1264 FILLER_29_279
*1265 FILLER_29_281
*1266 FILLER_29_293
*1267 FILLER_29_3
*1268 FILLER_29_34
*1269 FILLER_29_41
*1270 FILLER_29_52
*1271 FILLER_29_73
*1272 FILLER_29_8
*1273 FILLER_29_84
*1274 FILLER_29_96
*1275 FILLER_2_101
*1276 FILLER_2_105
*1277 FILLER_2_117
*1278 FILLER_2_129
*1279 FILLER_2_137
*1280 FILLER_2_141
*1281 FILLER_2_153
*1282 FILLER_2_165
*1283 FILLER_2_177
*1284 FILLER_2_189
*1285 FILLER_2_195
*1286 FILLER_2_197
*1287 FILLER_2_209
*1288 FILLER_2_221
*1289 FILLER_2_233
*1290 FILLER_2_24
*1291 FILLER_2_245
*1292 FILLER_2_251
*1293 FILLER_2_253
*1294 FILLER_2_265
*1295 FILLER_2_277
*1296 FILLER_2_289
*1297 FILLER_2_29
*1298 FILLER_2_294
*1299 FILLER_2_298
*1300 FILLER_2_3
*1301 FILLER_2_36
*1302 FILLER_2_41
*1303 FILLER_2_65
*1304 FILLER_2_7
*1305 FILLER_2_72
*1306 FILLER_2_79
*1307 FILLER_2_83
*1308 FILLER_30_101
*1309 FILLER_30_108
*1310 FILLER_30_116
*1311 FILLER_30_130
*1312 FILLER_30_138
*1313 FILLER_30_141
*1314 FILLER_30_152
*1315 FILLER_30_163
*1316 FILLER_30_171
*1317 FILLER_30_182
*1318 FILLER_30_194
*1319 FILLER_30_197
*1320 FILLER_30_221
*1321 FILLER_30_234
*1322 FILLER_30_24
*1323 FILLER_30_247
*1324 FILLER_30_251
*1325 FILLER_30_253
*1326 FILLER_30_265
*1327 FILLER_30_277
*1328 FILLER_30_289
*1329 FILLER_30_297
*1330 FILLER_30_3
*1331 FILLER_30_32
*1332 FILLER_30_41
*1333 FILLER_30_65
*1334 FILLER_30_76
*1335 FILLER_30_85
*1336 FILLER_30_97
*1337 FILLER_31_107
*1338 FILLER_31_111
*1339 FILLER_31_113
*1340 FILLER_31_117
*1341 FILLER_31_12
*1342 FILLER_31_125
*1343 FILLER_31_133
*1344 FILLER_31_142
*1345 FILLER_31_150
*1346 FILLER_31_154
*1347 FILLER_31_164
*1348 FILLER_31_169
*1349 FILLER_31_173
*1350 FILLER_31_183
*1351 FILLER_31_187
*1352 FILLER_31_197
*1353 FILLER_31_204
*1354 FILLER_31_220
*1355 FILLER_31_225
*1356 FILLER_31_230
*1357 FILLER_31_242
*1358 FILLER_31_254
*1359 FILLER_31_266
*1360 FILLER_31_278
*1361 FILLER_31_281
*1362 FILLER_31_293
*1363 FILLER_31_3
*1364 FILLER_31_36
*1365 FILLER_31_43
*1366 FILLER_31_50
*1367 FILLER_31_60
*1368 FILLER_31_67
*1369 FILLER_31_78
*1370 FILLER_31_89
*1371 FILLER_31_97
*1372 FILLER_32_106
*1373 FILLER_32_111
*1374 FILLER_32_117
*1375 FILLER_32_125
*1376 FILLER_32_133
*1377 FILLER_32_139
*1378 FILLER_32_144
*1379 FILLER_32_156
*1380 FILLER_32_166
*1381 FILLER_32_181
*1382 FILLER_32_188
*1383 FILLER_32_197
*1384 FILLER_32_210
*1385 FILLER_32_222
*1386 FILLER_32_234
*1387 FILLER_32_24
*1388 FILLER_32_246
*1389 FILLER_32_253
*1390 FILLER_32_264
*1391 FILLER_32_276
*1392 FILLER_32_287
*1393 FILLER_32_3
*1394 FILLER_32_36
*1395 FILLER_32_40
*1396 FILLER_32_57
*1397 FILLER_32_69
*1398 FILLER_32_81
*1399 FILLER_32_85
*1400 FILLER_32_89
*1401 FILLER_32_98
*1402 FILLER_33_101
*1403 FILLER_33_108
*1404 FILLER_33_113
*1405 FILLER_33_133
*1406 FILLER_33_137
*1407 FILLER_33_146
*1408 FILLER_33_154
*1409 FILLER_33_163
*1410 FILLER_33_167
*1411 FILLER_33_169
*1412 FILLER_33_175
*1413 FILLER_33_186
*1414 FILLER_33_194
*1415 FILLER_33_209
*1416 FILLER_33_220
*1417 FILLER_33_225
*1418 FILLER_33_237
*1419 FILLER_33_249
*1420 FILLER_33_261
*1421 FILLER_33_27
*1422 FILLER_33_273
*1423 FILLER_33_279
*1424 FILLER_33_281
*1425 FILLER_33_293
*1426 FILLER_33_3
*1427 FILLER_33_35
*1428 FILLER_33_52
*1429 FILLER_33_57
*1430 FILLER_33_62
*1431 FILLER_33_74
*1432 FILLER_33_82
*1433 FILLER_33_88
*1434 FILLER_33_96
*1435 FILLER_34_100
*1436 FILLER_34_112
*1437 FILLER_34_125
*1438 FILLER_34_13
*1439 FILLER_34_136
*1440 FILLER_34_149
*1441 FILLER_34_164
*1442 FILLER_34_172
*1443 FILLER_34_185
*1444 FILLER_34_192
*1445 FILLER_34_206
*1446 FILLER_34_210
*1447 FILLER_34_239
*1448 FILLER_34_24
*1449 FILLER_34_251
*1450 FILLER_34_253
*1451 FILLER_34_259
*1452 FILLER_34_269
*1453 FILLER_34_281
*1454 FILLER_34_293
*1455 FILLER_34_3
*1456 FILLER_34_45
*1457 FILLER_34_59
*1458 FILLER_34_63
*1459 FILLER_34_71
*1460 FILLER_34_78
*1461 FILLER_34_85
*1462 FILLER_35_103
*1463 FILLER_35_111
*1464 FILLER_35_113
*1465 FILLER_35_12
*1466 FILLER_35_126
*1467 FILLER_35_137
*1468 FILLER_35_144
*1469 FILLER_35_152
*1470 FILLER_35_158
*1471 FILLER_35_163
*1472 FILLER_35_167
*1473 FILLER_35_169
*1474 FILLER_35_182
*1475 FILLER_35_186
*1476 FILLER_35_196
*1477 FILLER_35_208
*1478 FILLER_35_219
*1479 FILLER_35_223
*1480 FILLER_35_225
*1481 FILLER_35_237
*1482 FILLER_35_249
*1483 FILLER_35_261
*1484 FILLER_35_271
*1485 FILLER_35_279
*1486 FILLER_35_290
*1487 FILLER_35_298
*1488 FILLER_35_36
*1489 FILLER_35_43
*1490 FILLER_35_52
*1491 FILLER_35_57
*1492 FILLER_35_68
*1493 FILLER_35_80
*1494 FILLER_35_92
*1495 FILLER_36_109
*1496 FILLER_36_124
*1497 FILLER_36_136
*1498 FILLER_36_149
*1499 FILLER_36_157
*1500 FILLER_36_167
*1501 FILLER_36_180
*1502 FILLER_36_188
*1503 FILLER_36_192
*1504 FILLER_36_200
*1505 FILLER_36_204
*1506 FILLER_36_215
*1507 FILLER_36_223
*1508 FILLER_36_231
*1509 FILLER_36_24
*1510 FILLER_36_243
*1511 FILLER_36_251
*1512 FILLER_36_253
*1513 FILLER_36_265
*1514 FILLER_36_277
*1515 FILLER_36_289
*1516 FILLER_36_297
*1517 FILLER_36_3
*1518 FILLER_36_45
*1519 FILLER_36_52
*1520 FILLER_36_59
*1521 FILLER_36_67
*1522 FILLER_36_72
*1523 FILLER_36_85
*1524 FILLER_36_97
*1525 FILLER_37_106
*1526 FILLER_37_113
*1527 FILLER_37_123
*1528 FILLER_37_136
*1529 FILLER_37_149
*1530 FILLER_37_162
*1531 FILLER_37_178
*1532 FILLER_37_189
*1533 FILLER_37_193
*1534 FILLER_37_204
*1535 FILLER_37_217
*1536 FILLER_37_223
*1537 FILLER_37_225
*1538 FILLER_37_237
*1539 FILLER_37_249
*1540 FILLER_37_261
*1541 FILLER_37_273
*1542 FILLER_37_279
*1543 FILLER_37_28
*1544 FILLER_37_281
*1545 FILLER_37_293
*1546 FILLER_37_3
*1547 FILLER_37_48
*1548 FILLER_37_60
*1549 FILLER_37_7
*1550 FILLER_37_70
*1551 FILLER_37_82
*1552 FILLER_37_94
*1553 FILLER_38_103
*1554 FILLER_38_115
*1555 FILLER_38_120
*1556 FILLER_38_13
*1557 FILLER_38_132
*1558 FILLER_38_141
*1559 FILLER_38_157
*1560 FILLER_38_169
*1561 FILLER_38_179
*1562 FILLER_38_190
*1563 FILLER_38_197
*1564 FILLER_38_209
*1565 FILLER_38_22
*1566 FILLER_38_220
*1567 FILLER_38_232
*1568 FILLER_38_244
*1569 FILLER_38_253
*1570 FILLER_38_265
*1571 FILLER_38_277
*1572 FILLER_38_289
*1573 FILLER_38_29
*1574 FILLER_38_297
*1575 FILLER_38_3
*1576 FILLER_38_53
*1577 FILLER_38_60
*1578 FILLER_38_67
*1579 FILLER_38_78
*1580 FILLER_38_91
*1581 FILLER_39_105
*1582 FILLER_39_111
*1583 FILLER_39_12
*1584 FILLER_39_120
*1585 FILLER_39_129
*1586 FILLER_39_141
*1587 FILLER_39_151
*1588 FILLER_39_163
*1589 FILLER_39_167
*1590 FILLER_39_179
*1591 FILLER_39_192
*1592 FILLER_39_205
*1593 FILLER_39_212
*1594 FILLER_39_225
*1595 FILLER_39_237
*1596 FILLER_39_249
*1597 FILLER_39_261
*1598 FILLER_39_273
*1599 FILLER_39_279
*1600 FILLER_39_281
*1601 FILLER_39_293
*1602 FILLER_39_36
*1603 FILLER_39_44
*1604 FILLER_39_48
*1605 FILLER_39_62
*1606 FILLER_39_68
*1607 FILLER_39_79
*1608 FILLER_39_91
*1609 FILLER_39_97
*1610 FILLER_3_105
*1611 FILLER_3_111
*1612 FILLER_3_113
*1613 FILLER_3_125
*1614 FILLER_3_137
*1615 FILLER_3_149
*1616 FILLER_3_161
*1617 FILLER_3_167
*1618 FILLER_3_169
*1619 FILLER_3_181
*1620 FILLER_3_193
*1621 FILLER_3_205
*1622 FILLER_3_217
*1623 FILLER_3_223
*1624 FILLER_3_225
*1625 FILLER_3_237
*1626 FILLER_3_249
*1627 FILLER_3_261
*1628 FILLER_3_273
*1629 FILLER_3_279
*1630 FILLER_3_281
*1631 FILLER_3_289
*1632 FILLER_3_294
*1633 FILLER_3_298
*1634 FILLER_3_3
*1635 FILLER_3_36
*1636 FILLER_3_43
*1637 FILLER_3_50
*1638 FILLER_3_73
*1639 FILLER_3_8
*1640 FILLER_3_93
*1641 FILLER_40_101
*1642 FILLER_40_115
*1643 FILLER_40_136
*1644 FILLER_40_150
*1645 FILLER_40_161
*1646 FILLER_40_167
*1647 FILLER_40_171
*1648 FILLER_40_184
*1649 FILLER_40_197
*1650 FILLER_40_209
*1651 FILLER_40_221
*1652 FILLER_40_233
*1653 FILLER_40_24
*1654 FILLER_40_245
*1655 FILLER_40_251
*1656 FILLER_40_253
*1657 FILLER_40_265
*1658 FILLER_40_277
*1659 FILLER_40_289
*1660 FILLER_40_29
*1661 FILLER_40_297
*1662 FILLER_40_3
*1663 FILLER_40_52
*1664 FILLER_40_59
*1665 FILLER_40_7
*1666 FILLER_40_71
*1667 FILLER_40_83
*1668 FILLER_40_90
*1669 FILLER_40_97
*1670 FILLER_41_11
*1671 FILLER_41_110
*1672 FILLER_41_113
*1673 FILLER_41_125
*1674 FILLER_41_137
*1675 FILLER_41_149
*1676 FILLER_41_15
*1677 FILLER_41_161
*1678 FILLER_41_167
*1679 FILLER_41_169
*1680 FILLER_41_177
*1681 FILLER_41_185
*1682 FILLER_41_196
*1683 FILLER_41_208
*1684 FILLER_41_220
*1685 FILLER_41_225
*1686 FILLER_41_237
*1687 FILLER_41_249
*1688 FILLER_41_261