*SPEF "ieee 1481-1999"
*DESIGN "AidanMedcalf_pid_controller"
*DATE "11:11:11 Fri 11 11, 1111"
*VENDOR "OpenRCX"
*PROGRAM "Parallel Extraction"
*VERSION "1.0"
*DESIGN_FLOW "NAME_SCOPE LOCAL" "PIN_CAP NONE"
*DIVIDER /
*DELIMITER :
*BUS_DELIMITER []
*T_UNIT 1 NS
*C_UNIT 1 PF
*R_UNIT 1 OHM
*L_UNIT 1 HENRY

*NAME_MAP
*1 io_in[0]
*2 io_in[1]
*3 io_in[2]
*4 io_in[3]
*5 io_in[4]
*6 io_in[5]
*7 io_in[6]
*8 io_in[7]
*9 io_out[0]
*10 io_out[1]
*11 io_out[2]
*12 io_out[3]
*13 io_out[4]
*14 net7
*15 net8
*16 net9
*19 _0000_
*20 _0001_
*21 _0002_
*22 _0003_
*23 _0004_
*24 _0005_
*25 _0006_
*26 _0007_
*27 _0008_
*28 _0009_
*29 _0010_
*30 _0011_
*31 _0012_
*32 _0013_
*33 _0014_
*34 _0015_
*35 _0016_
*36 _0017_
*37 _0018_
*38 _0019_
*39 _0020_
*40 _0021_
*41 _0022_
*42 _0023_
*43 _0024_
*44 _0025_
*45 _0026_
*46 _0027_
*47 _0028_
*48 _0029_
*49 _0030_
*50 _0031_
*51 _0032_
*52 _0033_
*53 _0034_
*54 _0035_
*55 _0036_
*56 _0037_
*57 _0038_
*58 _0039_
*59 _0040_
*60 _0041_
*61 _0042_
*62 _0043_
*63 _0044_
*64 _0045_
*65 _0046_
*66 _0047_
*67 _0048_
*68 _0049_
*69 _0050_
*70 _0051_
*71 _0052_
*72 _0053_
*73 _0054_
*74 _0055_
*75 _0056_
*76 _0057_
*77 _0058_
*78 _0059_
*79 _0060_
*80 _0061_
*81 _0062_
*82 _0063_
*83 _0064_
*84 _0065_
*85 _0066_
*86 _0067_
*87 _0068_
*88 _0069_
*89 _0070_
*90 _0071_
*91 _0072_
*92 _0073_
*93 _0074_
*94 _0075_
*95 _0076_
*96 _0077_
*97 _0078_
*98 _0079_
*99 _0080_
*100 _0081_
*101 _0082_
*102 _0083_
*103 _0084_
*104 _0085_
*105 _0086_
*106 _0087_
*107 _0088_
*108 _0089_
*109 _0090_
*110 _0091_
*111 _0092_
*112 _0093_
*113 _0094_
*114 _0095_
*115 _0096_
*116 _0097_
*117 _0098_
*118 _0099_
*119 _0100_
*120 _0101_
*121 _0102_
*122 _0103_
*123 _0104_
*124 _0105_
*125 _0106_
*126 _0107_
*127 _0108_
*128 _0109_
*129 _0110_
*130 _0111_
*131 _0112_
*132 _0113_
*133 _0114_
*134 _0115_
*135 _0116_
*136 _0117_
*137 _0118_
*138 _0119_
*139 _0120_
*140 _0121_
*141 _0122_
*142 _0123_
*143 _0124_
*144 _0125_
*145 _0126_
*146 _0127_
*147 _0128_
*148 _0129_
*149 _0130_
*150 _0131_
*151 _0132_
*152 _0133_
*153 _0134_
*154 _0135_
*155 _0136_
*156 _0137_
*157 _0138_
*158 _0139_
*159 _0140_
*160 _0141_
*161 _0142_
*162 _0143_
*163 _0144_
*164 _0145_
*165 _0146_
*166 _0147_
*167 _0148_
*168 _0149_
*169 _0150_
*170 _0151_
*171 _0152_
*172 _0153_
*173 _0154_
*174 _0155_
*175 _0156_
*176 _0157_
*177 _0158_
*178 _0159_
*179 _0160_
*180 _0161_
*181 _0162_
*182 _0163_
*183 _0164_
*184 _0165_
*185 _0166_
*186 _0167_
*187 _0168_
*188 _0169_
*189 _0170_
*190 _0171_
*191 _0172_
*192 _0173_
*193 _0174_
*194 _0175_
*195 _0176_
*196 _0177_
*197 _0178_
*198 _0179_
*199 _0180_
*200 _0181_
*201 _0182_
*202 _0183_
*203 _0184_
*204 _0185_
*205 _0186_
*206 _0187_
*207 _0188_
*208 _0189_
*209 _0190_
*210 _0191_
*211 _0192_
*212 _0193_
*213 _0194_
*214 _0195_
*215 _0196_
*216 _0197_
*217 _0198_
*218 _0199_
*219 _0200_
*220 _0201_
*221 _0202_
*222 _0203_
*223 _0204_
*224 _0205_
*225 _0206_
*226 _0207_
*227 _0208_
*228 _0209_
*229 _0210_
*230 _0211_
*231 _0212_
*232 _0213_
*233 _0214_
*234 _0215_
*235 _0216_
*236 _0217_
*237 _0218_
*238 _0219_
*239 _0220_
*240 _0221_
*241 _0222_
*242 _0223_
*243 _0224_
*244 _0225_
*245 _0226_
*246 _0227_
*247 _0228_
*248 _0229_
*249 _0230_
*250 _0231_
*251 _0232_
*252 _0233_
*253 _0234_
*254 _0235_
*255 _0236_
*256 _0237_
*257 _0238_
*258 _0239_
*259 _0240_
*260 _0241_
*261 _0242_
*262 _0243_
*263 _0244_
*264 _0245_
*265 _0246_
*266 _0247_
*267 _0248_
*268 _0249_
*269 _0250_
*270 _0251_
*271 _0252_
*272 _0253_
*273 _0254_
*274 _0255_
*275 _0256_
*276 _0257_
*277 _0258_
*278 _0259_
*279 _0260_
*280 _0261_
*281 _0262_
*282 _0263_
*283 _0264_
*284 _0265_
*285 _0266_
*286 _0267_
*287 _0268_
*288 _0269_
*289 _0270_
*290 _0271_
*291 _0272_
*292 _0273_
*293 _0274_
*294 _0275_
*295 _0276_
*296 _0277_
*297 _0278_
*298 _0279_
*299 _0280_
*300 _0281_
*301 _0282_
*302 _0283_
*303 _0284_
*304 _0285_
*305 _0286_
*306 _0287_
*307 _0288_
*308 _0289_
*309 _0290_
*310 _0291_
*311 _0292_
*312 _0293_
*313 _0294_
*314 _0295_
*315 _0296_
*316 _0297_
*317 _0298_
*318 _0299_
*319 _0300_
*320 _0301_
*321 _0302_
*322 _0303_
*323 _0304_
*324 _0305_
*325 _0306_
*326 _0307_
*327 _0308_
*328 _0309_
*329 _0310_
*330 _0311_
*331 _0312_
*332 _0313_
*333 _0314_
*334 _0315_
*335 _0316_
*336 _0317_
*337 _0318_
*338 _0319_
*339 _0320_
*340 _0321_
*341 _0322_
*342 _0323_
*343 _0324_
*344 _0325_
*345 _0326_
*346 _0327_
*347 _0328_
*348 _0329_
*349 _0330_
*350 _0331_
*351 _0332_
*352 _0333_
*353 _0334_
*354 _0335_
*355 _0336_
*356 _0337_
*357 _0338_
*358 _0339_
*359 _0340_
*360 _0341_
*361 _0342_
*362 _0343_
*363 _0344_
*364 _0345_
*365 _0346_
*366 _0347_
*367 _0348_
*368 _0349_
*369 _0350_
*370 _0351_
*371 _0352_
*372 _0353_
*373 _0354_
*374 _0355_
*375 _0356_
*376 _0357_
*377 _0358_
*378 _0359_
*379 _0360_
*380 _0361_
*381 _0362_
*382 _0363_
*383 _0364_
*384 _0365_
*385 _0366_
*386 _0367_
*387 _0368_
*388 _0369_
*389 _0370_
*390 _0371_
*391 _0372_
*392 _0373_
*393 _0374_
*394 _0375_
*395 _0376_
*396 _0377_
*397 _0378_
*398 _0379_
*399 _0380_
*400 _0381_
*401 _0382_
*402 _0383_
*403 _0384_
*404 _0385_
*405 _0386_
*406 _0387_
*407 _0388_
*408 _0389_
*409 _0390_
*410 _0391_
*411 _0392_
*412 _0393_
*413 _0394_
*414 _0395_
*415 _0396_
*416 _0397_
*417 _0398_
*418 _0399_
*419 _0400_
*420 _0401_
*421 _0402_
*422 _0403_
*423 _0404_
*424 _0405_
*425 _0406_
*426 _0407_
*427 _0408_
*428 _0409_
*429 _0410_
*430 _0411_
*431 _0412_
*432 _0413_
*433 _0414_
*434 _0415_
*435 _0416_
*436 _0417_
*437 _0418_
*438 _0419_
*439 _0420_
*440 _0421_
*441 _0422_
*442 _0423_
*443 _0424_
*444 _0425_
*445 _0426_
*446 _0427_
*447 _0428_
*448 _0429_
*449 _0430_
*450 _0431_
*451 _0432_
*452 _0433_
*453 _0434_
*454 _0435_
*455 _0436_
*456 _0437_
*457 _0438_
*458 _0439_
*459 _0440_
*460 _0441_
*461 _0442_
*462 _0443_
*463 _0444_
*464 _0445_
*465 _0446_
*466 _0447_
*467 _0448_
*468 _0449_
*469 _0450_
*470 _0451_
*471 _0452_
*472 _0453_
*473 _0454_
*474 _0455_
*475 _0456_
*476 _0457_
*477 _0458_
*478 _0459_
*479 _0460_
*480 _0461_
*481 _0462_
*482 _0463_
*483 _0464_
*484 _0465_
*485 _0466_
*486 _0467_
*487 _0468_
*488 _0469_
*489 _0470_
*490 _0471_
*491 _0472_
*492 _0473_
*493 _0474_
*494 _0475_
*495 _0476_
*496 _0477_
*497 _0478_
*498 _0479_
*499 _0480_
*500 _0481_
*501 _0482_
*502 _0483_
*503 _0484_
*504 _0485_
*505 _0486_
*506 _0487_
*507 _0488_
*508 _0489_
*509 _0490_
*510 _0491_
*511 _0492_
*512 _0493_
*513 _0494_
*514 _0495_
*515 _0496_
*516 _0497_
*517 _0498_
*518 _0499_
*519 _0500_
*520 _0501_
*521 _0502_
*522 _0503_
*523 _0504_
*524 _0505_
*525 _0506_
*526 _0507_
*527 _0508_
*528 _0509_
*529 _0510_
*530 _0511_
*531 _0512_
*532 _0513_
*533 _0514_
*534 _0515_
*535 _0516_
*536 _0517_
*537 _0518_
*538 _0519_
*539 _0520_
*540 _0521_
*541 _0522_
*542 _0523_
*543 _0524_
*544 _0525_
*545 _0526_
*546 _0527_
*547 _0528_
*548 _0529_
*549 _0530_
*550 _0531_
*551 _0532_
*552 _0533_
*553 _0534_
*554 _0535_
*555 _0536_
*556 _0537_
*557 _0538_
*558 _0539_
*559 _0540_
*560 _0541_
*561 _0542_
*562 _0543_
*563 _0544_
*564 _0545_
*565 _0546_
*566 _0547_
*567 _0548_
*568 _0549_
*569 _0550_
*570 _0551_
*571 _0552_
*572 _0553_
*573 _0554_
*574 _0555_
*575 _0556_
*576 _0557_
*577 _0558_
*578 _0559_
*579 _0560_
*580 _0561_
*581 _0562_
*582 _0563_
*583 _0564_
*584 _0565_
*585 _0566_
*586 _0567_
*587 _0568_
*588 _0569_
*589 _0570_
*590 _0571_
*591 _0572_
*592 _0573_
*593 _0574_
*594 _0575_
*595 _0576_
*596 _0577_
*597 _0578_
*598 _0579_
*599 _0580_
*600 _0581_
*601 _0582_
*602 _0583_
*603 _0584_
*604 _0585_
*605 _0586_
*606 _0587_
*607 _0588_
*608 _0589_
*609 _0590_
*610 _0591_
*611 _0592_
*612 _0593_
*613 _0594_
*614 _0595_
*615 _0596_
*616 _0597_
*617 _0598_
*618 _0599_
*619 _0600_
*620 _0601_
*621 _0602_
*622 _0603_
*623 _0604_
*624 _0605_
*625 _0606_
*626 _0607_
*627 _0608_
*628 _0609_
*629 _0610_
*630 _0611_
*631 _0612_
*632 _0613_
*633 _0614_
*634 _0615_
*635 _0616_
*636 _0617_
*637 _0618_
*638 _0619_
*639 _0620_
*640 _0621_
*641 _0622_
*642 _0623_
*643 _0624_
*644 _0625_
*645 _0626_
*646 _0627_
*647 _0628_
*648 _0629_
*649 _0630_
*650 _0631_
*651 _0632_
*652 _0633_
*653 _0634_
*654 _0635_
*655 _0636_
*656 _0637_
*657 _0638_
*658 _0639_
*659 _0640_
*660 _0641_
*661 _0642_
*662 _0643_
*663 _0644_
*664 _0645_
*665 _0646_
*666 _0647_
*667 _0648_
*668 _0649_
*669 _0650_
*670 _0651_
*671 _0652_
*672 _0653_
*673 _0654_
*674 _0655_
*675 _0656_
*676 _0657_
*677 _0658_
*678 _0659_
*679 _0660_
*680 _0661_
*681 _0662_
*682 _0663_
*683 _0664_
*684 _0665_
*685 _0666_
*686 _0667_
*687 _0668_
*688 _0669_
*689 _0670_
*690 _0671_
*691 _0672_
*692 _0673_
*693 _0674_
*694 _0675_
*695 _0676_
*696 _0677_
*697 _0678_
*698 _0679_
*699 _0680_
*700 _0681_
*701 _0682_
*702 _0683_
*703 _0684_
*704 _0685_
*705 _0686_
*706 _0687_
*707 _0688_
*708 _0689_
*709 _0690_
*710 _0691_
*711 _0692_
*712 _0693_
*713 _0694_
*714 _0695_
*715 _0696_
*716 _0697_
*717 _0698_
*718 _0699_
*719 _0700_
*720 _0701_
*721 _0702_
*722 _0703_
*723 _0704_
*724 _0705_
*725 _0706_
*726 _0707_
*727 _0708_
*728 _0709_
*729 _0710_
*730 _0711_
*731 _0712_
*732 _0713_
*733 _0714_
*734 _0715_
*735 _0716_
*736 _0717_
*737 _0718_
*738 _0719_
*739 _0720_
*740 _0721_
*741 _0722_
*742 _0723_
*743 _0724_
*744 _0725_
*745 _0726_
*746 _0727_
*747 _0728_
*748 _0729_
*749 _0730_
*750 _0731_
*751 _0732_
*752 _0733_
*753 _0734_
*754 _0735_
*755 _0736_
*756 _0737_
*757 _0738_
*758 _0739_
*759 _0740_
*760 _0741_
*761 _0742_
*762 _0743_
*763 _0744_
*764 _0745_
*765 _0746_
*766 _0747_
*767 _0748_
*768 _0749_
*769 _0750_
*770 _0751_
*771 _0752_
*772 _0753_
*773 _0754_
*774 _0755_
*775 _0756_
*776 _0757_
*777 _0758_
*778 _0759_
*779 _0760_
*780 _0761_
*781 _0762_
*782 _0763_
*783 _0764_
*784 _0765_
*785 _0766_
*786 _0767_
*787 _0768_
*788 _0769_
*789 _0770_
*790 _0771_
*791 _0772_
*792 _0773_
*793 _0774_
*794 _0775_
*795 _0776_
*796 _0777_
*797 _0778_
*798 _0779_
*799 _0780_
*800 _0781_
*801 _0782_
*802 _0783_
*803 _0784_
*804 _0785_
*805 _0786_
*806 _0787_
*807 _0788_
*808 _0789_
*809 _0790_
*810 _0791_
*811 _0792_
*812 _0793_
*813 _0794_
*814 _0795_
*815 _0796_
*816 _0797_
*817 _0798_
*818 _0799_
*819 _0800_
*820 _0801_
*821 _0802_
*822 _0803_
*823 _0804_
*824 _0805_
*825 _0806_
*826 _0807_
*827 _0808_
*828 _0809_
*829 _0810_
*830 _0811_
*831 _0812_
*832 _0813_
*833 _0814_
*834 _0815_
*835 _0816_
*836 _0817_
*837 _0818_
*838 _0819_
*839 _0820_
*840 _0821_
*841 _0822_
*842 _0823_
*843 _0824_
*844 _0825_
*845 _0826_
*846 _0827_
*847 _0828_
*848 _0829_
*849 _0830_
*850 _0831_
*851 _0832_
*852 _0833_
*853 _0834_
*854 _0835_
*855 _0836_
*856 _0837_
*857 _0838_
*858 _0839_
*859 _0840_
*860 _0841_
*861 _0842_
*862 _0843_
*863 _0844_
*864 _0845_
*865 _0846_
*866 _0847_
*867 _0848_
*868 _0849_
*869 _0850_
*870 _0851_
*871 _0852_
*872 _0853_
*873 _0854_
*874 _0855_
*875 _0856_
*876 _0857_
*877 _0858_
*878 _0859_
*879 _0860_
*880 _0861_
*881 _0862_
*882 _0863_
*883 _0864_
*884 _0865_
*885 _0866_
*886 _0867_
*887 _0868_
*888 _0869_
*889 _0870_
*890 _0871_
*891 _0872_
*892 _0873_
*893 _0874_
*894 _0875_
*895 _0876_
*896 _0877_
*897 _0878_
*898 _0879_
*899 _0880_
*900 _0881_
*901 _0882_
*902 _0883_
*903 _0884_
*904 _0885_
*905 _0886_
*906 _0887_
*907 _0888_
*908 _0889_
*909 _0890_
*910 _0891_
*911 _0892_
*912 _0893_
*913 _0894_
*914 _0895_
*915 _0896_
*916 _0897_
*917 _0898_
*918 _0899_
*919 _0900_
*920 _0901_
*921 _0902_
*922 _0903_
*923 _0904_
*924 _0905_
*925 _0906_
*926 _0907_
*927 _0908_
*928 _0909_
*929 _0910_
*930 _0911_
*931 _0912_
*932 _0913_
*933 _0914_
*934 _0915_
*935 _0916_
*936 _0917_
*937 _0918_
*938 _0919_
*939 _0920_
*940 _0921_
*941 _0922_
*942 _0923_
*943 _0924_
*944 _0925_
*945 _0926_
*946 _0927_
*947 _0928_
*948 _0929_
*949 _0930_
*950 _0931_
*951 _0932_
*952 _0933_
*953 _0934_
*954 _0935_
*955 _0936_
*956 _0937_
*957 _0938_
*958 _0939_
*959 _0940_
*960 _0941_
*961 _0942_
*962 _0943_
*963 _0944_
*964 _0945_
*965 _0946_
*966 _0947_
*967 _0948_
*968 _0949_
*969 _0950_
*970 _0951_
*971 _0952_
*972 _0953_
*973 _0954_
*974 _0955_
*975 _0956_
*976 _0957_
*977 _0958_
*978 _0959_
*979 _0960_
*980 _0961_
*981 _0962_
*982 _0963_
*983 _0964_
*984 _0965_
*985 _0966_
*986 _0967_
*987 _0968_
*988 _0969_
*989 _0970_
*990 _0971_
*991 _0972_
*992 _0973_
*993 _0974_
*994 _0975_
*995 _0976_
*996 _0977_
*997 _0978_
*998 _0979_
*999 _0980_
*1000 _0981_
*1001 _0982_
*1002 _0983_
*1003 _0984_
*1004 _0985_
*1005 _0986_
*1006 _0987_
*1007 _0988_
*1008 _0989_
*1009 _0990_
*1010 _0991_
*1011 _0992_
*1012 _0993_
*1013 _0994_
*1014 _0995_
*1015 _0996_
*1016 _0997_
*1017 _0998_
*1018 _0999_
*1019 _1000_
*1020 _1001_
*1021 _1002_
*1022 _1003_
*1023 _1004_
*1024 _1005_
*1025 _1006_
*1026 _1007_
*1027 _1008_
*1028 _1009_
*1029 _1010_
*1030 _1011_
*1031 _1012_
*1032 _1013_
*1033 _1014_
*1034 _1015_
*1035 _1016_
*1036 _1017_
*1037 _1018_
*1038 _1019_
*1039 _1020_
*1040 _1021_
*1041 _1022_
*1042 _1023_
*1043 _1024_
*1044 _1025_
*1045 _1026_
*1046 _1027_
*1047 _1028_
*1048 _1029_
*1049 _1030_
*1050 _1031_
*1051 _1032_
*1052 _1033_
*1053 _1034_
*1054 _1035_
*1055 _1036_
*1056 _1037_
*1057 _1038_
*1058 _1039_
*1059 _1040_
*1060 _1041_
*1061 _1042_
*1062 cfg_spi\.buffer\[0\]
*1063 cfg_spi\.buffer\[10\]
*1064 cfg_spi\.buffer\[11\]
*1065 cfg_spi\.buffer\[12\]
*1066 cfg_spi\.buffer\[13\]
*1067 cfg_spi\.buffer\[14\]
*1068 cfg_spi\.buffer\[15\]
*1069 cfg_spi\.buffer\[16\]
*1070 cfg_spi\.buffer\[17\]
*1071 cfg_spi\.buffer\[18\]
*1072 cfg_spi\.buffer\[19\]
*1073 cfg_spi\.buffer\[1\]
*1074 cfg_spi\.buffer\[20\]
*1075 cfg_spi\.buffer\[21\]
*1076 cfg_spi\.buffer\[22\]
*1077 cfg_spi\.buffer\[23\]
*1078 cfg_spi\.buffer\[2\]
*1079 cfg_spi\.buffer\[3\]
*1080 cfg_spi\.buffer\[4\]
*1081 cfg_spi\.buffer\[5\]
*1082 cfg_spi\.buffer\[6\]
*1083 cfg_spi\.buffer\[7\]
*1084 cfg_spi\.buffer\[8\]
*1085 cfg_spi\.buffer\[9\]
*1086 cfg_spi\.sck_last
*1087 clknet_0_io_in[0]
*1088 clknet_3_0__leaf_io_in[0]
*1089 clknet_3_1__leaf_io_in[0]
*1090 clknet_3_2__leaf_io_in[0]
*1091 clknet_3_3__leaf_io_in[0]
*1092 clknet_3_4__leaf_io_in[0]
*1093 clknet_3_5__leaf_io_in[0]
*1094 clknet_3_6__leaf_io_in[0]
*1095 clknet_3_7__leaf_io_in[0]
*1096 net1
*1097 net2
*1098 net3
*1099 net4
*1100 net5
*1101 net6
*1102 pid\.error\[0\]
*1103 pid\.error\[1\]
*1104 pid\.error\[2\]
*1105 pid\.error\[3\]
*1106 pid\.error\[4\]
*1107 pid\.error\[5\]
*1108 pid\.error\[6\]
*1109 pid\.error\[7\]
*1110 pid\.error\[8\]
*1111 pid\.error_i\[0\]
*1112 pid\.error_i\[1\]
*1113 pid\.error_i\[2\]
*1114 pid\.error_i\[3\]
*1115 pid\.error_i\[4\]
*1116 pid\.error_i\[5\]
*1117 pid\.error_i\[6\]
*1118 pid\.error_i\[7\]
*1119 pid\.error_i\[8\]
*1120 pid\.pv\[0\]
*1121 pid\.pv\[1\]
*1122 pid\.pv\[2\]
*1123 pid\.pv\[3\]
*1124 pid\.pv\[4\]
*1125 pid\.pv\[5\]
*1126 pid\.pv\[6\]
*1127 pid\.pv\[7\]
*1128 pv_in_cs_hist\[0\]
*1129 pv_in_cs_hist\[1\]
*1130 pv_stb_gen\.count\[0\]
*1131 pv_stb_gen\.count\[10\]
*1132 pv_stb_gen\.count\[11\]
*1133 pv_stb_gen\.count\[12\]
*1134 pv_stb_gen\.count\[13\]
*1135 pv_stb_gen\.count\[14\]
*1136 pv_stb_gen\.count\[15\]
*1137 pv_stb_gen\.count\[1\]
*1138 pv_stb_gen\.count\[2\]
*1139 pv_stb_gen\.count\[3\]
*1140 pv_stb_gen\.count\[4\]
*1141 pv_stb_gen\.count\[5\]
*1142 pv_stb_gen\.count\[6\]
*1143 pv_stb_gen\.count\[7\]
*1144 pv_stb_gen\.count\[8\]
*1145 pv_stb_gen\.count\[9\]
*1146 spi_in\.bi\[0\]
*1147 spi_in\.bi\[1\]
*1148 spi_in\.bi\[2\]
*1149 spi_in\.cs
*1150 spi_in\.phase
*1151 spi_in\.sck
*1152 spi_in\.stb\[0\]
*1153 spi_in\.stb\[1\]
*1154 spi_in\.stb\[2\]
*1155 spi_out\.bi\[0\]
*1156 spi_out\.bi\[1\]
*1157 spi_out\.bi\[2\]
*1158 spi_out\.cs
*1159 spi_out\.mosi
*1160 spi_out\.phase
*1161 spi_out\.sck
*1162 spi_out\.start
*1163 spi_out\.stb\[0\]
*1164 spi_out\.stb\[1\]
*1165 spi_out\.stb\[2\]
*1166 ANTENNA_0
*1167 ANTENNA_1
*1168 ANTENNA_10
*1169 ANTENNA_11
*1170 ANTENNA_12
*1171 ANTENNA_13
*1172 ANTENNA_14
*1173 ANTENNA_15
*1174 ANTENNA_16
*1175 ANTENNA_17
*1176 ANTENNA_18
*1177 ANTENNA_2
*1178 ANTENNA_3
*1179 ANTENNA_4
*1180 ANTENNA_5
*1181 ANTENNA_6
*1182 ANTENNA_7
*1183 ANTENNA_8
*1184 ANTENNA_9
*1185 AidanMedcalf_pid_controller_7
*1186 AidanMedcalf_pid_controller_8
*1187 AidanMedcalf_pid_controller_9
*1188 FILLER_0_101
*1189 FILLER_0_105
*1190 FILLER_0_111
*1191 FILLER_0_129
*1192 FILLER_0_136
*1193 FILLER_0_147
*1194 FILLER_0_153
*1195 FILLER_0_164
*1196 FILLER_0_179
*1197 FILLER_0_190
*1198 FILLER_0_20
*1199 FILLER_0_201
*1200 FILLER_0_215
*1201 FILLER_0_223
*1202 FILLER_0_225
*1203 FILLER_0_237
*1204 FILLER_0_24
*1205 FILLER_0_244
*1206 FILLER_0_256
*1207 FILLER_0_260
*1208 FILLER_0_265
*1209 FILLER_0_275
*1210 FILLER_0_279
*1211 FILLER_0_281
*1212 FILLER_0_29
*1213 FILLER_0_295
*1214 FILLER_0_46
*1215 FILLER_0_54
*1216 FILLER_0_57
*1217 FILLER_0_75
*1218 FILLER_0_79
*1219 FILLER_0_83
*1220 FILLER_10_109
*1221 FILLER_10_115
*1222 FILLER_10_119
*1223 FILLER_10_126
*1224 FILLER_10_136
*1225 FILLER_10_141
*1226 FILLER_10_145
*1227 FILLER_10_155
*1228 FILLER_10_169
*1229 FILLER_10_177
*1230 FILLER_10_181
*1231 FILLER_10_192
*1232 FILLER_10_204
*1233 FILLER_10_208
*1234 FILLER_10_219
*1235 FILLER_10_233
*1236 FILLER_10_24
*1237 FILLER_10_246
*1238 FILLER_10_253
*1239 FILLER_10_257
*1240 FILLER_10_265
*1241 FILLER_10_279
*1242 FILLER_10_288
*1243 FILLER_10_29
*1244 FILLER_10_295
*1245 FILLER_10_3
*1246 FILLER_10_41
*1247 FILLER_10_60
*1248 FILLER_10_7
*1249 FILLER_10_80
*1250 FILLER_10_85
*1251 FILLER_11_10
*1252 FILLER_11_105
*1253 FILLER_11_111
*1254 FILLER_11_116
*1255 FILLER_11_128
*1256 FILLER_11_135
*1257 FILLER_11_147
*1258 FILLER_11_158
*1259 FILLER_11_166
*1260 FILLER_11_172
*1261 FILLER_11_184
*1262 FILLER_11_196
*1263 FILLER_11_200
*1264 FILLER_11_205
*1265 FILLER_11_219
*1266 FILLER_11_223
*1267 FILLER_11_225
*1268 FILLER_11_237
*1269 FILLER_11_245
*1270 FILLER_11_253
*1271 FILLER_11_259
*1272 FILLER_11_270
*1273 FILLER_11_278
*1274 FILLER_11_281
*1275 FILLER_11_292
*1276 FILLER_11_298
*1277 FILLER_11_3
*1278 FILLER_11_30
*1279 FILLER_11_52
*1280 FILLER_11_57
*1281 FILLER_11_69
*1282 FILLER_11_93
*1283 FILLER_12_101
*1284 FILLER_12_113
*1285 FILLER_12_122
*1286 FILLER_12_136
*1287 FILLER_12_141
*1288 FILLER_12_152
*1289 FILLER_12_159
*1290 FILLER_12_170
*1291 FILLER_12_184
*1292 FILLER_12_19
*1293 FILLER_12_192
*1294 FILLER_12_207
*1295 FILLER_12_221
*1296 FILLER_12_232
*1297 FILLER_12_245
*1298 FILLER_12_251
*1299 FILLER_12_263
*1300 FILLER_12_27
*1301 FILLER_12_272
*1302 FILLER_12_29
*1303 FILLER_12_294
*1304 FILLER_12_298
*1305 FILLER_12_33
*1306 FILLER_12_50
*1307 FILLER_12_71
*1308 FILLER_12_83
*1309 FILLER_13_106
*1310 FILLER_13_113
*1311 FILLER_13_121
*1312 FILLER_13_130
*1313 FILLER_13_136
*1314 FILLER_13_144
*1315 FILLER_13_158
*1316 FILLER_13_166
*1317 FILLER_13_175
*1318 FILLER_13_187
*1319 FILLER_13_201
*1320 FILLER_13_215
*1321 FILLER_13_223
*1322 FILLER_13_232
*1323 FILLER_13_24
*1324 FILLER_13_246
*1325 FILLER_13_250
*1326 FILLER_13_256
*1327 FILLER_13_267
*1328 FILLER_13_276
*1329 FILLER_13_28
*1330 FILLER_13_281
*1331 FILLER_13_295
*1332 FILLER_13_3
*1333 FILLER_13_45
*1334 FILLER_13_53
*1335 FILLER_13_57
*1336 FILLER_13_65
*1337 FILLER_13_7
*1338 FILLER_13_83
*1339 FILLER_13_88
*1340 FILLER_14_109
*1341 FILLER_14_119
*1342 FILLER_14_131
*1343 FILLER_14_139
*1344 FILLER_14_141
*1345 FILLER_14_153
*1346 FILLER_14_164
*1347 FILLER_14_173
*1348 FILLER_14_183
*1349 FILLER_14_191
*1350 FILLER_14_195
*1351 FILLER_14_201
*1352 FILLER_14_212
*1353 FILLER_14_216
*1354 FILLER_14_224
*1355 FILLER_14_234
*1356 FILLER_14_24
*1357 FILLER_14_244
*1358 FILLER_14_253
*1359 FILLER_14_267
*1360 FILLER_14_276
*1361 FILLER_14_282
*1362 FILLER_14_29
*1363 FILLER_14_290
*1364 FILLER_14_298
*1365 FILLER_14_3
*1366 FILLER_14_46
*1367 FILLER_14_66
*1368 FILLER_14_7
*1369 FILLER_14_78
*1370 FILLER_14_85
*1371 FILLER_14_97
*1372 FILLER_15_101
*1373 FILLER_15_109
*1374 FILLER_15_113
*1375 FILLER_15_117
*1376 FILLER_15_122
*1377 FILLER_15_134
*1378 FILLER_15_144
*1379 FILLER_15_160
*1380 FILLER_15_169
*1381 FILLER_15_176
*1382 FILLER_15_192
*1383 FILLER_15_202
*1384 FILLER_15_210
*1385 FILLER_15_218
*1386 FILLER_15_225
*1387 FILLER_15_238
*1388 FILLER_15_24
*1389 FILLER_15_245
*1390 FILLER_15_253
*1391 FILLER_15_262
*1392 FILLER_15_272
*1393 FILLER_15_289
*1394 FILLER_15_297
*1395 FILLER_15_3
*1396 FILLER_15_52
*1397 FILLER_15_57
*1398 FILLER_15_7
*1399 FILLER_15_81
*1400 FILLER_16_106
*1401 FILLER_16_114
*1402 FILLER_16_127
*1403 FILLER_16_136
*1404 FILLER_16_141
*1405 FILLER_16_149
*1406 FILLER_16_157
*1407 FILLER_16_169
*1408 FILLER_16_173
*1409 FILLER_16_180
*1410 FILLER_16_184
*1411 FILLER_16_19
*1412 FILLER_16_191
*1413 FILLER_16_195
*1414 FILLER_16_204
*1415 FILLER_16_213
*1416 FILLER_16_221
*1417 FILLER_16_225
*1418 FILLER_16_232
*1419 FILLER_16_240
*1420 FILLER_16_248
*1421 FILLER_16_253
*1422 FILLER_16_260
*1423 FILLER_16_268
*1424 FILLER_16_27
*1425 FILLER_16_275
*1426 FILLER_16_285
*1427 FILLER_16_295
*1428 FILLER_16_46
*1429 FILLER_16_50
*1430 FILLER_16_67
*1431 FILLER_16_79
*1432 FILLER_16_83
*1433 FILLER_16_85
*1434 FILLER_17_103
*1435 FILLER_17_108
*1436 FILLER_17_123
*1437 FILLER_17_131
*1438 FILLER_17_14
*1439 FILLER_17_141
*1440 FILLER_17_149
*1441 FILLER_17_156
*1442 FILLER_17_164
*1443 FILLER_17_169
*1444 FILLER_17_175
*1445 FILLER_17_185
*1446 FILLER_17_193
*1447 FILLER_17_202
*1448 FILLER_17_206
*1449 FILLER_17_211
*1450 FILLER_17_218
*1451 FILLER_17_228
*1452 FILLER_17_235
*1453 FILLER_17_239
*1454 FILLER_17_247
*1455 FILLER_17_262
*1456 FILLER_17_276
*1457 FILLER_17_284
*1458 FILLER_17_295
*1459 FILLER_17_36
*1460 FILLER_17_48
*1461 FILLER_17_6
*1462 FILLER_17_73
*1463 FILLER_17_85
*1464 FILLER_17_97
*1465 FILLER_18_103
*1466 FILLER_18_115
*1467 FILLER_18_128
*1468 FILLER_18_136
*1469 FILLER_18_144
*1470 FILLER_18_152
*1471 FILLER_18_158
*1472 FILLER_18_167
*1473 FILLER_18_177
*1474 FILLER_18_185
*1475 FILLER_18_192
*1476 FILLER_18_20
*1477 FILLER_18_200
*1478 FILLER_18_214
*1479 FILLER_18_222
*1480 FILLER_18_230
*1481 FILLER_18_237
*1482 FILLER_18_246
*1483 FILLER_18_256
*1484 FILLER_18_262
*1485 FILLER_18_271
*1486 FILLER_18_279
*1487 FILLER_18_29
*1488 FILLER_18_290
*1489 FILLER_18_298
*1490 FILLER_18_3
*1491 FILLER_18_41
*1492 FILLER_18_60
*1493 FILLER_18_80
*1494 FILLER_18_85
*1495 FILLER_19_102
*1496 FILLER_19_110
*1497 FILLER_19_113
*1498 FILLER_19_125
*1499 FILLER_19_137
*1500 FILLER_19_143
*1501 FILLER_19_151
*1502 FILLER_19_163
*1503 FILLER_19_167
*1504 FILLER_19_173
*1505 FILLER_19_181
*1506 FILLER_19_19
*1507 FILLER_19_191
*1508 FILLER_19_199
*1509 FILLER_19_213
*1510 FILLER_19_220
*1511 FILLER_19_23
*1512 FILLER_19_232
*1513 FILLER_19_240
*1514 FILLER_19_248
*1515 FILLER_19_257
*1516 FILLER_19_268
*1517 FILLER_19_275
*1518 FILLER_19_279
*1519 FILLER_19_281
*1520 FILLER_19_295
*1521 FILLER_19_32
*1522 FILLER_19_52
*1523 FILLER_19_57
*1524 FILLER_19_63
*1525 FILLER_19_80
*1526 FILLER_19_84
*1527 FILLER_1_106
*1528 FILLER_1_113
*1529 FILLER_1_120
*1530 FILLER_1_134
*1531 FILLER_1_15
*1532 FILLER_1_151
*1533 FILLER_1_163
*1534 FILLER_1_167
*1535 FILLER_1_179
*1536 FILLER_1_186
*1537 FILLER_1_200
*1538 FILLER_1_204
*1539 FILLER_1_21
*1540 FILLER_1_212
*1541 FILLER_1_219
*1542 FILLER_1_223
*1543 FILLER_1_225
*1544 FILLER_1_229
*1545 FILLER_1_236
*1546 FILLER_1_247
*1547 FILLER_1_256
*1548 FILLER_1_262
*1549 FILLER_1_269
*1550 FILLER_1_276
*1551 FILLER_1_281
*1552 FILLER_1_285
*1553 FILLER_1_294
*1554 FILLER_1_298
*1555 FILLER_1_3
*1556 FILLER_1_44
*1557 FILLER_1_57
*1558 FILLER_1_75
*1559 FILLER_1_83
*1560 FILLER_1_87
*1561 FILLER_20_104
*1562 FILLER_20_114
*1563 FILLER_20_126
*1564 FILLER_20_136
*1565 FILLER_20_141
*1566 FILLER_20_147
*1567 FILLER_20_152
*1568 FILLER_20_164
*1569 FILLER_20_171
*1570 FILLER_20_175
*1571 FILLER_20_182
*1572 FILLER_20_186
*1573 FILLER_20_190
*1574 FILLER_20_202
*1575 FILLER_20_211
*1576 FILLER_20_218
*1577 FILLER_20_226
*1578 FILLER_20_232
*1579 FILLER_20_24
*1580 FILLER_20_245
*1581 FILLER_20_251
*1582 FILLER_20_253
*1583 FILLER_20_260
*1584 FILLER_20_269
*1585 FILLER_20_289
*1586 FILLER_20_29
*1587 FILLER_20_297
*1588 FILLER_20_3
*1589 FILLER_20_35
*1590 FILLER_20_52
*1591 FILLER_20_60
*1592 FILLER_20_7
*1593 FILLER_20_77
*1594 FILLER_20_83
*1595 FILLER_20_85
*1596 FILLER_21_105
*1597 FILLER_21_111
*1598 FILLER_21_113
*1599 FILLER_21_125
*1600 FILLER_21_131
*1601 FILLER_21_143
*1602 FILLER_21_15
*1603 FILLER_21_155
*1604 FILLER_21_159
*1605 FILLER_21_164
*1606 FILLER_21_176
*1607 FILLER_21_187
*1608 FILLER_21_200
*1609 FILLER_21_204
*1610 FILLER_21_209
*1611 FILLER_21_216
*1612 FILLER_21_225
*1613 FILLER_21_233
*1614 FILLER_21_246
*1615 FILLER_21_252
*1616 FILLER_21_259
*1617 FILLER_21_266
*1618 FILLER_21_276
*1619 FILLER_21_289
*1620 FILLER_21_297
*1621 FILLER_21_3
*1622 FILLER_21_36
*1623 FILLER_21_48
*1624 FILLER_21_57
*1625 FILLER_21_69
*1626 FILLER_21_93
*1627 FILLER_22_109
*1628 FILLER_22_117
*1629 FILLER_22_123
*1630 FILLER_22_131
*1631 FILLER_22_139
*1632 FILLER_22_151
*1633 FILLER_22_162
*1634 FILLER_22_178
*1635 FILLER_22_186
*1636 FILLER_22_19
*1637 FILLER_22_192
*1638 FILLER_22_204
*1639 FILLER_22_212
*1640 FILLER_22_219
*1641 FILLER_22_227
*1642 FILLER_22_237
*1643 FILLER_22_248
*1644 FILLER_22_260
*1645 FILLER_22_27
*1646 FILLER_22_271
*1647 FILLER_22_281
*1648 FILLER_22_29
*1649 FILLER_22_294
*1650 FILLER_22_298
*1651 FILLER_22_49
*1652 FILLER_22_69
*1653 FILLER_22_81
*1654 FILLER_22_85
*1655 FILLER_22_97
*1656 FILLER_23_105
*1657 FILLER_23_111
*1658 FILLER_23_113
*1659 FILLER_23_121
*1660 FILLER_23_125
*1661 FILLER_23_137
*1662 FILLER_23_142
*1663 FILLER_23_154
*1664 FILLER_23_160
*1665 FILLER_23_169
*1666 FILLER_23_178
*1667 FILLER_23_189
*1668 FILLER_23_196
*1669 FILLER_23_203
*1670 FILLER_23_211
*1671 FILLER_23_216
*1672 FILLER_23_228
*1673 FILLER_23_235
*1674 FILLER_23_244
*1675 FILLER_23_25
*1676 FILLER_23_253
*1677 FILLER_23_263
*1678 FILLER_23_273
*1679 FILLER_23_279
*1680 FILLER_23_281
*1681 FILLER_23_295
*1682 FILLER_23_3
*1683 FILLER_23_45
*1684 FILLER_23_53
*1685 FILLER_23_57
*1686 FILLER_23_69
*1687 FILLER_23_81
*1688 FILLER_24_109
*1689 FILLER_24_121
*1690 FILLER_24_133
*1691 FILLER_24_139
*1692 FILLER_24_147
*1693 FILLER_24_155
*1694 FILLER_24_168
*1695 FILLER_24_178
*1696 FILLER_24_192
*1697 FILLER_24_197
*1698 FILLER_24_20
*1699 FILLER_24_212
*1700 FILLER_24_223
*1701 FILLER_24_236
*1702 FILLER_24_247
*1703 FILLER_24_251
*1704 FILLER_24_260
*1705 FILLER_24_267
*1706 FILLER_24_278
*1707 FILLER_24_284
*1708 FILLER_24_29
*1709 FILLER_24_293
*1710 FILLER_24_37
*1711 FILLER_24_56
*1712 FILLER_24_60
*1713 FILLER_24_79
*1714 FILLER_24_83
*1715 FILLER_24_85
*1716 FILLER_24_97
*1717 FILLER_25_106
*1718 FILLER_25_113
*1719 FILLER_25_121
*1720 FILLER_25_130
*1721 FILLER_25_139
*1722 FILLER_25_151
*1723 FILLER_25_157
*1724 FILLER_25_165
*1725 FILLER_25_176
*1726 FILLER_25_186
*1727 FILLER_25_192
*1728 FILLER_25_199
*1729 FILLER_25_211
*1730 FILLER_25_223
*1731 FILLER_25_225
*1732 FILLER_25_229
*1733 FILLER_25_238
*1734 FILLER_25_245
*1735 FILLER_25_253
*1736 FILLER_25_259
*1737 FILLER_25_270
*1738 FILLER_25_278
*1739 FILLER_25_281
*1740 FILLER_25_29
*1741 FILLER_25_292
*1742 FILLER_25_298
*1743 FILLER_25_49
*1744 FILLER_25_55
*1745 FILLER_25_57
*1746 FILLER_25_7
*1747 FILLER_25_76
*1748 FILLER_25_88
*1749 FILLER_26_106
*1750 FILLER_26_118
*1751 FILLER_26_129
*1752 FILLER_26_137
*1753 FILLER_26_141
*1754 FILLER_26_153
*1755 FILLER_26_165
*1756 FILLER_26_176
*1757 FILLER_26_184
*1758 FILLER_26_192
*1759 FILLER_26_203
*1760 FILLER_26_215
*1761 FILLER_26_227
*1762 FILLER_26_235
*1763 FILLER_26_24
*1764 FILLER_26_243
*1765 FILLER_26_248
*1766 FILLER_26_253
*1767 FILLER_26_259
*1768 FILLER_26_268
*1769 FILLER_26_279
*1770 FILLER_26_29
*1771 FILLER_26_293
*1772 FILLER_26_3
*1773 FILLER_26_41
*1774 FILLER_26_61
*1775 FILLER_26_7
*1776 FILLER_26_73
*1777 FILLER_26_81
*1778 FILLER_26_85
*1779 FILLER_26_89
*1780 FILLER_27_102
*1781 FILLER_27_110
*1782 FILLER_27_113
*1783 FILLER_27_125
*1784 FILLER_27_139
*1785 FILLER_27_150
*1786 FILLER_27_162
*1787 FILLER_27_169
*1788 FILLER_27_180
*1789 FILLER_27_187
*1790 FILLER_27_193
*1791 FILLER_27_201
*1792 FILLER_27_208
*1793 FILLER_27_216
*1794 FILLER_27_220
*1795 FILLER_27_228
*1796 FILLER_27_235
*1797 FILLER_27_246
*1798 FILLER_27_250
*1799 FILLER_27_257
*1800 FILLER_27_266
*1801 FILLER_27_270
*1802 FILLER_27_276
*1803 FILLER_27_284
*1804 FILLER_27_295
*1805 FILLER_27_32
*1806 FILLER_27_44
*1807 FILLER_27_57
*1808 FILLER_27_6
*1809 FILLER_27_69
*1810 FILLER_27_81
*1811 FILLER_27_85
*1812 FILLER_28_105
*1813 FILLER_28_117
*1814 FILLER_28_125
*1815 FILLER_28_133
*1816 FILLER_28_139
*1817 FILLER_28_141
*1818 FILLER_28_151
*1819 FILLER_28_161
*1820 FILLER_28_176
*1821 FILLER_28_184
*1822 FILLER_28_19
*1823 FILLER_28_191
*1824 FILLER_28_195
*1825 FILLER_28_197
*1826 FILLER_28_201
*1827 FILLER_28_208
*1828 FILLER_28_219
*1829 FILLER_28_228
*1830 FILLER_28_243
*1831 FILLER_28_251
*1832 FILLER_28_256
*1833 FILLER_28_27
*1834 FILLER_28_270
*1835 FILLER_28_280
*1836 FILLER_28_286
*1837 FILLER_28_295
*1838 FILLER_28_35
*1839 FILLER_28_63
*1840 FILLER_28_75
*1841 FILLER_28_83
*1842 FILLER_28_85
*1843 FILLER_28_97
*1844 FILLER_29_100
*1845 FILLER_29_108
*1846 FILLER_29_113
*1847 FILLER_29_127
*1848 FILLER_29_139
*1849 FILLER_29_147
*1850 FILLER_29_156
*1851 FILLER_29_164
*1852 FILLER_29_175
*1853 FILLER_29_182
*1854 FILLER_29_189
*1855 FILLER_29_19
*1856 FILLER_29_193
*1857 FILLER_29_198
*1858 FILLER_29_209
*1859 FILLER_29_219
*1860 FILLER_29_223
*1861 FILLER_29_23
*1862 FILLER_29_233
*1863 FILLER_29_241
*1864 FILLER_29_266
*1865 FILLER_29_276
*1866 FILLER_29_281
*1867 FILLER_29_287
*1868 FILLER_29_295
*1869 FILLER_29_33
*1870 FILLER_29_41
*1871 FILLER_29_49
*1872 FILLER_29_55
*1873 FILLER_29_57
*1874 FILLER_29_63
*1875 FILLER_29_74
*1876 FILLER_29_92
*1877 FILLER_2_109
*1878 FILLER_2_117
*1879 FILLER_2_131
*1880 FILLER_2_139
*1881 FILLER_2_141
*1882 FILLER_2_154
*1883 FILLER_2_168
*1884 FILLER_2_180
*1885 FILLER_2_191
*1886 FILLER_2_195
*1887 FILLER_2_20
*1888 FILLER_2_214
*1889 FILLER_2_227
*1890 FILLER_2_235
*1891 FILLER_2_243
*1892 FILLER_2_251
*1893 FILLER_2_253
*1894 FILLER_2_258
*1895 FILLER_2_269
*1896 FILLER_2_277
*1897 FILLER_2_283
*1898 FILLER_2_29
*1899 FILLER_2_293
*1900 FILLER_2_34
*1901 FILLER_2_53
*1902 FILLER_2_73
*1903 FILLER_2_77