*SPEF "ieee 1481-1999"
*DESIGN "alu_top"
*DATE "11:11:11 Fri 11 11, 1111"
*VENDOR "OpenRCX"
*PROGRAM "Parallel Extraction"
*VERSION "1.0"
*DESIGN_FLOW "NAME_SCOPE LOCAL" "PIN_CAP NONE"
*DIVIDER /
*DELIMITER :
*BUS_DELIMITER []
*T_UNIT 1 NS
*C_UNIT 1 PF
*R_UNIT 1 OHM
*L_UNIT 1 HENRY

*NAME_MAP
*1 io_in[0]
*2 io_in[1]
*3 io_in[2]
*4 io_in[3]
*5 io_in[4]
*6 io_in[5]
*7 io_in[6]
*8 io_in[7]
*9 io_out[0]
*10 io_out[1]
*11 io_out[2]
*12 io_out[3]
*13 io_out[4]
*14 io_out[5]
*15 io_out[6]
*16 net11
*19 _000_
*20 _001_
*21 _002_
*22 _003_
*23 _004_
*24 _005_
*25 _006_
*26 _007_
*27 _008_
*28 _009_
*29 _010_
*30 _011_
*31 _012_
*32 _013_
*33 _014_
*34 _015_
*35 _016_
*36 _017_
*37 _018_
*38 _019_
*39 _020_
*40 _021_
*41 _022_
*42 _023_
*43 _024_
*44 _025_
*45 _027_
*46 _028_
*47 _029_
*48 _030_
*49 _031_
*50 _032_
*51 _033_
*52 _034_
*53 _035_
*54 _036_
*55 _037_
*56 _038_
*57 _039_
*58 _040_
*59 _041_
*60 _042_
*61 _043_
*62 _044_
*63 _045_
*64 _046_
*65 _047_
*66 _048_
*67 _049_
*68 _050_
*69 _051_
*70 _052_
*71 _053_
*72 _054_
*73 _055_
*74 _056_
*75 _057_
*76 _058_
*77 _059_
*78 _060_
*79 _061_
*80 _062_
*81 _063_
*82 _064_
*83 _065_
*84 _066_
*85 _067_
*86 _068_
*87 _069_
*88 _070_
*89 _071_
*90 _072_
*91 _073_
*92 _074_
*93 _075_
*94 _076_
*95 _077_
*96 _078_
*97 _079_
*98 _080_
*99 _081_
*100 _082_
*101 _083_
*102 _084_
*103 _085_
*104 _086_
*105 _087_
*106 _088_
*107 _089_
*108 _090_
*109 _091_
*110 _092_
*111 _093_
*112 _094_
*113 _095_
*114 _096_
*115 _097_
*116 _098_
*117 _099_
*118 _100_
*119 _101_
*120 _102_
*121 _103_
*122 _104_
*123 _105_
*124 _106_
*125 _107_
*126 _108_
*127 _109_
*128 _110_
*129 _111_
*130 _112_
*131 _113_
*132 _114_
*133 _115_
*134 _116_
*135 _117_
*136 _118_
*137 _119_
*138 _120_
*139 _121_
*140 _122_
*141 _123_
*142 _124_
*143 _125_
*144 _126_
*145 _127_
*146 _128_
*147 _129_
*148 _130_
*149 _131_
*150 _132_
*151 _133_
*152 alu\.fsm0\.gnt_0
*153 alu\.fsm0\.gnt_1
*154 alu\.fsm0\.state\[0\]
*155 alu\.fsm0\.state\[1\]
*156 alu\.fsm0\.state\[2\]
*157 alu\.fsm1\.gnt_0
*158 alu\.fsm1\.gnt_1
*159 alu\.fsm1\.state\[0\]
*160 alu\.fsm1\.state\[2\]
*161 clknet_0__010_
*162 clknet_0__024_
*163 clknet_0__025_
*164 clknet_0__034_
*165 clknet_0__042_
*166 clknet_0__046_
*167 clknet_0__055_
*168 clknet_0__059_
*169 clknet_0__090_
*170 clknet_0__092_
*171 clknet_0__094_
*172 clknet_0__095_
*173 clknet_0__101_
*174 clknet_0__102_
*175 clknet_0__117_
*176 clknet_0__118_
*177 clknet_0__119_
*178 clknet_0__126_
*179 clknet_0__131_
*180 clknet_0__132_
*181 clknet_0_io_in[0]
*182 clknet_1_0__leaf__010_
*183 clknet_1_0__leaf__024_
*184 clknet_1_0__leaf__025_
*185 clknet_1_0__leaf__034_
*186 clknet_1_0__leaf__042_
*187 clknet_1_0__leaf__046_
*188 clknet_1_0__leaf__055_
*189 clknet_1_0__leaf__059_
*190 clknet_1_0__leaf__090_
*191 clknet_1_0__leaf__092_
*192 clknet_1_0__leaf__094_
*193 clknet_1_0__leaf__095_
*194 clknet_1_0__leaf__101_
*195 clknet_1_0__leaf__102_
*196 clknet_1_0__leaf__117_
*197 clknet_1_0__leaf__118_
*198 clknet_1_0__leaf__119_
*199 clknet_1_0__leaf__126_
*200 clknet_1_0__leaf__131_
*201 clknet_1_0__leaf__132_
*202 clknet_1_0__leaf_io_in[0]
*203 clknet_1_1__leaf__010_
*204 clknet_1_1__leaf__024_
*205 clknet_1_1__leaf__025_
*206 clknet_1_1__leaf__034_
*207 clknet_1_1__leaf__042_
*208 clknet_1_1__leaf__046_
*209 clknet_1_1__leaf__055_
*210 clknet_1_1__leaf__059_
*211 clknet_1_1__leaf__090_
*212 clknet_1_1__leaf__092_
*213 clknet_1_1__leaf__094_
*214 clknet_1_1__leaf__095_
*215 clknet_1_1__leaf__101_
*216 clknet_1_1__leaf__102_
*217 clknet_1_1__leaf__117_
*218 clknet_1_1__leaf__118_
*219 clknet_1_1__leaf__119_
*220 clknet_1_1__leaf__126_
*221 clknet_1_1__leaf__131_
*222 clknet_1_1__leaf__132_
*223 clknet_1_1__leaf_io_in[0]
*224 net1
*225 net10
*226 net12
*227 net2
*228 net3
*229 net4
*230 net5
*231 net6
*232 net7
*233 net8
*234 net9
*235 ANTENNA_0
*236 ANTENNA_1
*237 ANTENNA_2
*238 ANTENNA_3
*239 FILLER_0_109
*240 FILLER_0_113
*241 FILLER_0_125
*242 FILLER_0_137
*243 FILLER_0_141
*244 FILLER_0_15
*245 FILLER_0_153
*246 FILLER_0_165
*247 FILLER_0_169
*248 FILLER_0_181
*249 FILLER_0_193
*250 FILLER_0_197
*251 FILLER_0_209
*252 FILLER_0_221
*253 FILLER_0_225
*254 FILLER_0_237
*255 FILLER_0_249
*256 FILLER_0_253
*257 FILLER_0_265
*258 FILLER_0_27
*259 FILLER_0_277
*260 FILLER_0_281
*261 FILLER_0_29
*262 FILLER_0_293
*263 FILLER_0_3
*264 FILLER_0_41
*265 FILLER_0_53
*266 FILLER_0_57
*267 FILLER_0_69
*268 FILLER_0_81
*269 FILLER_0_85
*270 FILLER_0_97
*271 FILLER_10_109
*272 FILLER_10_121
*273 FILLER_10_133
*274 FILLER_10_139
*275 FILLER_10_141
*276 FILLER_10_15
*277 FILLER_10_153
*278 FILLER_10_165
*279 FILLER_10_177
*280 FILLER_10_189
*281 FILLER_10_195
*282 FILLER_10_197
*283 FILLER_10_209
*284 FILLER_10_221
*285 FILLER_10_233
*286 FILLER_10_245
*287 FILLER_10_251
*288 FILLER_10_253
*289 FILLER_10_265
*290 FILLER_10_27
*291 FILLER_10_277
*292 FILLER_10_289
*293 FILLER_10_29
*294 FILLER_10_297
*295 FILLER_10_3
*296 FILLER_10_41
*297 FILLER_10_53
*298 FILLER_10_65
*299 FILLER_10_77
*300 FILLER_10_83
*301 FILLER_10_85
*302 FILLER_10_97
*303 FILLER_11_105
*304 FILLER_11_111
*305 FILLER_11_113
*306 FILLER_11_125
*307 FILLER_11_137
*308 FILLER_11_149
*309 FILLER_11_15
*310 FILLER_11_161
*311 FILLER_11_167
*312 FILLER_11_169
*313 FILLER_11_181
*314 FILLER_11_193
*315 FILLER_11_205
*316 FILLER_11_217
*317 FILLER_11_223
*318 FILLER_11_225
*319 FILLER_11_237
*320 FILLER_11_249
*321 FILLER_11_261
*322 FILLER_11_27
*323 FILLER_11_273
*324 FILLER_11_279
*325 FILLER_11_281
*326 FILLER_11_293
*327 FILLER_11_3
*328 FILLER_11_39
*329 FILLER_11_51
*330 FILLER_11_55
*331 FILLER_11_57
*332 FILLER_11_69
*333 FILLER_11_81
*334 FILLER_11_93
*335 FILLER_12_109
*336 FILLER_12_121
*337 FILLER_12_133
*338 FILLER_12_139
*339 FILLER_12_141
*340 FILLER_12_15
*341 FILLER_12_153
*342 FILLER_12_165
*343 FILLER_12_177
*344 FILLER_12_189
*345 FILLER_12_195
*346 FILLER_12_197
*347 FILLER_12_209
*348 FILLER_12_221
*349 FILLER_12_233
*350 FILLER_12_245
*351 FILLER_12_251
*352 FILLER_12_253
*353 FILLER_12_265
*354 FILLER_12_27
*355 FILLER_12_277
*356 FILLER_12_289
*357 FILLER_12_29
*358 FILLER_12_297
*359 FILLER_12_3
*360 FILLER_12_41
*361 FILLER_12_53
*362 FILLER_12_65
*363 FILLER_12_77
*364 FILLER_12_83
*365 FILLER_12_85
*366 FILLER_12_97
*367 FILLER_13_105
*368 FILLER_13_111
*369 FILLER_13_113
*370 FILLER_13_125
*371 FILLER_13_137
*372 FILLER_13_149
*373 FILLER_13_15
*374 FILLER_13_161
*375 FILLER_13_167
*376 FILLER_13_169
*377 FILLER_13_181
*378 FILLER_13_193
*379 FILLER_13_205
*380 FILLER_13_217
*381 FILLER_13_223
*382 FILLER_13_225
*383 FILLER_13_237
*384 FILLER_13_249
*385 FILLER_13_261
*386 FILLER_13_27
*387 FILLER_13_273
*388 FILLER_13_279
*389 FILLER_13_281
*390 FILLER_13_293
*391 FILLER_13_3
*392 FILLER_13_39
*393 FILLER_13_51
*394 FILLER_13_55
*395 FILLER_13_57
*396 FILLER_13_69
*397 FILLER_13_81
*398 FILLER_13_93
*399 FILLER_14_109
*400 FILLER_14_121
*401 FILLER_14_133
*402 FILLER_14_139
*403 FILLER_14_141
*404 FILLER_14_15
*405 FILLER_14_153
*406 FILLER_14_165
*407 FILLER_14_177
*408 FILLER_14_189
*409 FILLER_14_195
*410 FILLER_14_197
*411 FILLER_14_209
*412 FILLER_14_221
*413 FILLER_14_233
*414 FILLER_14_245
*415 FILLER_14_251
*416 FILLER_14_253
*417 FILLER_14_265
*418 FILLER_14_27
*419 FILLER_14_277
*420 FILLER_14_289
*421 FILLER_14_29
*422 FILLER_14_297
*423 FILLER_14_3
*424 FILLER_14_41
*425 FILLER_14_53
*426 FILLER_14_65
*427 FILLER_14_77
*428 FILLER_14_83
*429 FILLER_14_85
*430 FILLER_14_97
*431 FILLER_15_105
*432 FILLER_15_111
*433 FILLER_15_113
*434 FILLER_15_125
*435 FILLER_15_137
*436 FILLER_15_149
*437 FILLER_15_15
*438 FILLER_15_161
*439 FILLER_15_167
*440 FILLER_15_169
*441 FILLER_15_181
*442 FILLER_15_193
*443 FILLER_15_205
*444 FILLER_15_217
*445 FILLER_15_223
*446 FILLER_15_225
*447 FILLER_15_237
*448 FILLER_15_249
*449 FILLER_15_261
*450 FILLER_15_27
*451 FILLER_15_273
*452 FILLER_15_279
*453 FILLER_15_281
*454 FILLER_15_293
*455 FILLER_15_3
*456 FILLER_15_39
*457 FILLER_15_51
*458 FILLER_15_55
*459 FILLER_15_57
*460 FILLER_15_69
*461 FILLER_15_81
*462 FILLER_15_93
*463 FILLER_16_109
*464 FILLER_16_121
*465 FILLER_16_133
*466 FILLER_16_139
*467 FILLER_16_141
*468 FILLER_16_15
*469 FILLER_16_153
*470 FILLER_16_165
*471 FILLER_16_177
*472 FILLER_16_189
*473 FILLER_16_195
*474 FILLER_16_197
*475 FILLER_16_209
*476 FILLER_16_221
*477 FILLER_16_233
*478 FILLER_16_245
*479 FILLER_16_251
*480 FILLER_16_253
*481 FILLER_16_265
*482 FILLER_16_27
*483 FILLER_16_277
*484 FILLER_16_289
*485 FILLER_16_29
*486 FILLER_16_297
*487 FILLER_16_3
*488 FILLER_16_41
*489 FILLER_16_53
*490 FILLER_16_65
*491 FILLER_16_77
*492 FILLER_16_83
*493 FILLER_16_85
*494 FILLER_16_97
*495 FILLER_17_105
*496 FILLER_17_111
*497 FILLER_17_113
*498 FILLER_17_125
*499 FILLER_17_137
*500 FILLER_17_149
*501 FILLER_17_15
*502 FILLER_17_161
*503 FILLER_17_167
*504 FILLER_17_169
*505 FILLER_17_181
*506 FILLER_17_193
*507 FILLER_17_205
*508 FILLER_17_217
*509 FILLER_17_223
*510 FILLER_17_225
*511 FILLER_17_237
*512 FILLER_17_249
*513 FILLER_17_261
*514 FILLER_17_27
*515 FILLER_17_273
*516 FILLER_17_279
*517 FILLER_17_281
*518 FILLER_17_293
*519 FILLER_17_3
*520 FILLER_17_39
*521 FILLER_17_51
*522 FILLER_17_55
*523 FILLER_17_57
*524 FILLER_17_69
*525 FILLER_17_81
*526 FILLER_17_93
*527 FILLER_18_109
*528 FILLER_18_121
*529 FILLER_18_133
*530 FILLER_18_139
*531 FILLER_18_141
*532 FILLER_18_15
*533 FILLER_18_153
*534 FILLER_18_165
*535 FILLER_18_177
*536 FILLER_18_189
*537 FILLER_18_195
*538 FILLER_18_197
*539 FILLER_18_209
*540 FILLER_18_221
*541 FILLER_18_233
*542 FILLER_18_245
*543 FILLER_18_251
*544 FILLER_18_253
*545 FILLER_18_265
*546 FILLER_18_27
*547 FILLER_18_277
*548 FILLER_18_289
*549 FILLER_18_29
*550 FILLER_18_297
*551 FILLER_18_3
*552 FILLER_18_41
*553 FILLER_18_53
*554 FILLER_18_65
*555 FILLER_18_77
*556 FILLER_18_83
*557 FILLER_18_85
*558 FILLER_18_97
*559 FILLER_19_105
*560 FILLER_19_111
*561 FILLER_19_113
*562 FILLER_19_125
*563 FILLER_19_137
*564 FILLER_19_149
*565 FILLER_19_15
*566 FILLER_19_161
*567 FILLER_19_167
*568 FILLER_19_169
*569 FILLER_19_181
*570 FILLER_19_193
*571 FILLER_19_205
*572 FILLER_19_217
*573 FILLER_19_223
*574 FILLER_19_225
*575 FILLER_19_237
*576 FILLER_19_249
*577 FILLER_19_261
*578 FILLER_19_27
*579 FILLER_19_273
*580 FILLER_19_279
*581 FILLER_19_281
*582 FILLER_19_293
*583 FILLER_19_3
*584 FILLER_19_39
*585 FILLER_19_51
*586 FILLER_19_55
*587 FILLER_19_57
*588 FILLER_19_69
*589 FILLER_19_81
*590 FILLER_19_93
*591 FILLER_1_105
*592 FILLER_1_111
*593 FILLER_1_113
*594 FILLER_1_125
*595 FILLER_1_137
*596 FILLER_1_149
*597 FILLER_1_15
*598 FILLER_1_161
*599 FILLER_1_167
*600 FILLER_1_169
*601 FILLER_1_181
*602 FILLER_1_193
*603 FILLER_1_205
*604 FILLER_1_217
*605 FILLER_1_223
*606 FILLER_1_225
*607 FILLER_1_237
*608 FILLER_1_249
*609 FILLER_1_261
*610 FILLER_1_27
*611 FILLER_1_273
*612 FILLER_1_279
*613 FILLER_1_281
*614 FILLER_1_293
*615 FILLER_1_3
*616 FILLER_1_39
*617 FILLER_1_51
*618 FILLER_1_55
*619 FILLER_1_57
*620 FILLER_1_69
*621 FILLER_1_81
*622 FILLER_1_93
*623 FILLER_20_109
*624 FILLER_20_121
*625 FILLER_20_133
*626 FILLER_20_139
*627 FILLER_20_141
*628 FILLER_20_15
*629 FILLER_20_153
*630 FILLER_20_165
*631 FILLER_20_177
*632 FILLER_20_189
*633 FILLER_20_195
*634 FILLER_20_197
*635 FILLER_20_209
*636 FILLER_20_221
*637 FILLER_20_233
*638 FILLER_20_245
*639 FILLER_20_251
*640 FILLER_20_253
*641 FILLER_20_265
*642 FILLER_20_27
*643 FILLER_20_277
*644 FILLER_20_289
*645 FILLER_20_29
*646 FILLER_20_297
*647 FILLER_20_3
*648 FILLER_20_41
*649 FILLER_20_53
*650 FILLER_20_65
*651 FILLER_20_77
*652 FILLER_20_83
*653 FILLER_20_85
*654 FILLER_20_97
*655 FILLER_21_105
*656 FILLER_21_111
*657 FILLER_21_113
*658 FILLER_21_125
*659 FILLER_21_137
*660 FILLER_21_149
*661 FILLER_21_15
*662 FILLER_21_161
*663 FILLER_21_167
*664 FILLER_21_169
*665 FILLER_21_181
*666 FILLER_21_193
*667 FILLER_21_205
*668 FILLER_21_217
*669 FILLER_21_223
*670 FILLER_21_225
*671 FILLER_21_237
*672 FILLER_21_249
*673 FILLER_21_261
*674 FILLER_21_27
*675 FILLER_21_273
*676 FILLER_21_279
*677 FILLER_21_281
*678 FILLER_21_293
*679 FILLER_21_3
*680 FILLER_21_39
*681 FILLER_21_51
*682 FILLER_21_55
*683 FILLER_21_57
*684 FILLER_21_69
*685 FILLER_21_81
*686 FILLER_21_93
*687 FILLER_22_109
*688 FILLER_22_121
*689 FILLER_22_133
*690 FILLER_22_139
*691 FILLER_22_141
*692 FILLER_22_15
*693 FILLER_22_153
*694 FILLER_22_165
*695 FILLER_22_177
*696 FILLER_22_189
*697 FILLER_22_195
*698 FILLER_22_197
*699 FILLER_22_209
*700 FILLER_22_221
*701 FILLER_22_233
*702 FILLER_22_245
*703 FILLER_22_251
*704 FILLER_22_253
*705 FILLER_22_265
*706 FILLER_22_27
*707 FILLER_22_277
*708 FILLER_22_289
*709 FILLER_22_29
*710 FILLER_22_297
*711 FILLER_22_3
*712 FILLER_22_41
*713 FILLER_22_53
*714 FILLER_22_65
*715 FILLER_22_77
*716 FILLER_22_83
*717 FILLER_22_85
*718 FILLER_22_97
*719 FILLER_23_105
*720 FILLER_23_111
*721 FILLER_23_113
*722 FILLER_23_125
*723 FILLER_23_137
*724 FILLER_23_149
*725 FILLER_23_15
*726 FILLER_23_161
*727 FILLER_23_167
*728 FILLER_23_169
*729 FILLER_23_181
*730 FILLER_23_193
*731 FILLER_23_205
*732 FILLER_23_217
*733 FILLER_23_223
*734 FILLER_23_225
*735 FILLER_23_237
*736 FILLER_23_249
*737 FILLER_23_261
*738 FILLER_23_27
*739 FILLER_23_273
*740 FILLER_23_279
*741 FILLER_23_281
*742 FILLER_23_293
*743 FILLER_23_3
*744 FILLER_23_39
*745 FILLER_23_51
*746 FILLER_23_55
*747 FILLER_23_57
*748 FILLER_23_69
*749 FILLER_23_81
*750 FILLER_23_93
*751 FILLER_24_109
*752 FILLER_24_121
*753 FILLER_24_133
*754 FILLER_24_139
*755 FILLER_24_141
*756 FILLER_24_15
*757 FILLER_24_153
*758 FILLER_24_165
*759 FILLER_24_177
*760 FILLER_24_189
*761 FILLER_24_195
*762 FILLER_24_197
*763 FILLER_24_209
*764 FILLER_24_221
*765 FILLER_24_233
*766 FILLER_24_245
*767 FILLER_24_251
*768 FILLER_24_253
*769 FILLER_24_265
*770 FILLER_24_27
*771 FILLER_24_277
*772 FILLER_24_289
*773 FILLER_24_29
*774 FILLER_24_297
*775 FILLER_24_3
*776 FILLER_24_41
*777 FILLER_24_53
*778 FILLER_24_65
*779 FILLER_24_77
*780 FILLER_24_83
*781 FILLER_24_85
*782 FILLER_24_97
*783 FILLER_25_105
*784 FILLER_25_111
*785 FILLER_25_113
*786 FILLER_25_125
*787 FILLER_25_137
*788 FILLER_25_149
*789 FILLER_25_15
*790 FILLER_25_161
*791 FILLER_25_167
*792 FILLER_25_169
*793 FILLER_25_181
*794 FILLER_25_193
*795 FILLER_25_205
*796 FILLER_25_217
*797 FILLER_25_223
*798 FILLER_25_225
*799 FILLER_25_237
*800 FILLER_25_249
*801 FILLER_25_261
*802 FILLER_25_27
*803 FILLER_25_273
*804 FILLER_25_279
*805 FILLER_25_281
*806 FILLER_25_293
*807 FILLER_25_3
*808 FILLER_25_39
*809 FILLER_25_51
*810 FILLER_25_55
*811 FILLER_25_57
*812 FILLER_25_69
*813 FILLER_25_81
*814 FILLER_25_93
*815 FILLER_26_109
*816 FILLER_26_121
*817 FILLER_26_133
*818 FILLER_26_139
*819 FILLER_26_141
*820 FILLER_26_15
*821 FILLER_26_153
*822 FILLER_26_165
*823 FILLER_26_177
*824 FILLER_26_189
*825 FILLER_26_195
*826 FILLER_26_197
*827 FILLER_26_209
*828 FILLER_26_221
*829 FILLER_26_233
*830 FILLER_26_245
*831 FILLER_26_251
*832 FILLER_26_253
*833 FILLER_26_265
*834 FILLER_26_27
*835 FILLER_26_277
*836 FILLER_26_289
*837 FILLER_26_29
*838 FILLER_26_297
*839 FILLER_26_3
*840 FILLER_26_41
*841 FILLER_26_53
*842 FILLER_26_65
*843 FILLER_26_77
*844 FILLER_26_83
*845 FILLER_26_85
*846 FILLER_26_97
*847 FILLER_27_105
*848 FILLER_27_111
*849 FILLER_27_113
*850 FILLER_27_125
*851 FILLER_27_137
*852 FILLER_27_149
*853 FILLER_27_15
*854 FILLER_27_161
*855 FILLER_27_167
*856 FILLER_27_169
*857 FILLER_27_181
*858 FILLER_27_193
*859 FILLER_27_205
*860 FILLER_27_217
*861 FILLER_27_223
*862 FILLER_27_225
*863 FILLER_27_237
*864 FILLER_27_249
*865 FILLER_27_261
*866 FILLER_27_27
*867 FILLER_27_273
*868 FILLER_27_279
*869 FILLER_27_281
*870 FILLER_27_293
*871 FILLER_27_3
*872 FILLER_27_39
*873 FILLER_27_51
*874 FILLER_27_55
*875 FILLER_27_57
*876 FILLER_27_69
*877 FILLER_27_81
*878 FILLER_27_93
*879 FILLER_28_109
*880 FILLER_28_121
*881 FILLER_28_133
*882 FILLER_28_139
*883 FILLER_28_141
*884 FILLER_28_15
*885 FILLER_28_153
*886 FILLER_28_165
*887 FILLER_28_177
*888 FILLER_28_189
*889 FILLER_28_195
*890 FILLER_28_197
*891 FILLER_28_209
*892 FILLER_28_221
*893 FILLER_28_233
*894 FILLER_28_245
*895 FILLER_28_251
*896 FILLER_28_253
*897 FILLER_28_265
*898 FILLER_28_27
*899 FILLER_28_277
*900 FILLER_28_289
*901 FILLER_28_29
*902 FILLER_28_297
*903 FILLER_28_3
*904 FILLER_28_41
*905 FILLER_28_53
*906 FILLER_28_65
*907 FILLER_28_77
*908 FILLER_28_83
*909 FILLER_28_85
*910 FILLER_28_97
*911 FILLER_29_105
*912 FILLER_29_111
*913 FILLER_29_113
*914 FILLER_29_125
*915 FILLER_29_137
*916 FILLER_29_149
*917 FILLER_29_15
*918 FILLER_29_161
*919 FILLER_29_167
*920 FILLER_29_169
*921 FILLER_29_181
*922 FILLER_29_193
*923 FILLER_29_205
*924 FILLER_29_217
*925 FILLER_29_223
*926 FILLER_29_225
*927 FILLER_29_237
*928 FILLER_29_249
*929 FILLER_29_261
*930 FILLER_29_27
*931 FILLER_29_273
*932 FILLER_29_279
*933 FILLER_29_281
*934 FILLER_29_293
*935 FILLER_29_3
*936 FILLER_29_39
*937 FILLER_29_51
*938 FILLER_29_55
*939 FILLER_29_57
*940 FILLER_29_69
*941 FILLER_29_81
*942 FILLER_29_93
*943 FILLER_2_109
*944 FILLER_2_121
*945 FILLER_2_133
*946 FILLER_2_139
*947 FILLER_2_141
*948 FILLER_2_15
*949 FILLER_2_153
*950 FILLER_2_165
*951 FILLER_2_177
*952 FILLER_2_189
*953 FILLER_2_195
*954 FILLER_2_197
*955 FILLER_2_209
*956 FILLER_2_221
*957 FILLER_2_233
*958 FILLER_2_245
*959 FILLER_2_251
*960 FILLER_2_253
*961 FILLER_2_265
*962 FILLER_2_27
*963 FILLER_2_277
*964 FILLER_2_289
*965 FILLER_2_29
*966 FILLER_2_297
*967 FILLER_2_3
*968 FILLER_2_41
*969 FILLER_2_53
*970 FILLER_2_65
*971 FILLER_2_77
*972 FILLER_2_83
*973 FILLER_2_85
*974 FILLER_2_97
*975 FILLER_30_109
*976 FILLER_30_121
*977 FILLER_30_133
*978 FILLER_30_139
*979 FILLER_30_141
*980 FILLER_30_15
*981 FILLER_30_153
*982 FILLER_30_165
*983 FILLER_30_177
*984 FILLER_30_189
*985 FILLER_30_195
*986 FILLER_30_197
*987 FILLER_30_209
*988 FILLER_30_221
*989 FILLER_30_233
*990 FILLER_30_245
*991 FILLER_30_251
*992 FILLER_30_253
*993 FILLER_30_265
*994 FILLER_30_27
*995 FILLER_30_277
*996 FILLER_30_289
*997 FILLER_30_29
*998 FILLER_30_297
*999 FILLER_30_3
*1000 FILLER_30_41
*1001 FILLER_30_53
*1002 FILLER_30_65
*1003 FILLER_30_77
*1004 FILLER_30_83
*1005 FILLER_30_85
*1006 FILLER_30_97
*1007 FILLER_31_105
*1008 FILLER_31_111
*1009 FILLER_31_113
*1010 FILLER_31_125
*1011 FILLER_31_133
*1012 FILLER_31_15
*1013 FILLER_31_150
*1014 FILLER_31_162
*1015 FILLER_31_169
*1016 FILLER_31_181
*1017 FILLER_31_193
*1018 FILLER_31_205
*1019 FILLER_31_217
*1020 FILLER_31_223
*1021 FILLER_31_225
*1022 FILLER_31_237
*1023 FILLER_31_249
*1024 FILLER_31_261
*1025 FILLER_31_27
*1026 FILLER_31_273
*1027 FILLER_31_279
*1028 FILLER_31_281
*1029 FILLER_31_293
*1030 FILLER_31_3
*1031 FILLER_31_39
*1032 FILLER_31_51
*1033 FILLER_31_55
*1034 FILLER_31_57
*1035 FILLER_31_69
*1036 FILLER_31_81
*1037 FILLER_31_93
*1038 FILLER_32_109
*1039 FILLER_32_121
*1040 FILLER_32_133
*1041 FILLER_32_139
*1042 FILLER_32_141
*1043 FILLER_32_15
*1044 FILLER_32_153
*1045 FILLER_32_165
*1046 FILLER_32_177
*1047 FILLER_32_189
*1048 FILLER_32_195
*1049 FILLER_32_197
*1050 FILLER_32_209
*1051 FILLER_32_221
*1052 FILLER_32_233
*1053 FILLER_32_245
*1054 FILLER_32_251
*1055 FILLER_32_253
*1056 FILLER_32_265
*1057 FILLER_32_27
*1058 FILLER_32_277
*1059 FILLER_32_289
*1060 FILLER_32_29
*1061 FILLER_32_297
*1062 FILLER_32_3
*1063 FILLER_32_41
*1064 FILLER_32_53
*1065 FILLER_32_65
*1066 FILLER_32_77
*1067 FILLER_32_83
*1068 FILLER_32_85
*1069 FILLER_32_97
*1070 FILLER_33_105
*1071 FILLER_33_111
*1072 FILLER_33_113
*1073 FILLER_33_125
*1074 FILLER_33_137
*1075 FILLER_33_15
*1076 FILLER_33_154
*1077 FILLER_33_166
*1078 FILLER_33_169
*1079 FILLER_33_178
*1080 FILLER_33_190
*1081 FILLER_33_202
*1082 FILLER_33_214
*1083 FILLER_33_222
*1084 FILLER_33_225
*1085 FILLER_33_237
*1086 FILLER_33_249
*1087 FILLER_33_261
*1088 FILLER_33_27
*1089 FILLER_33_273
*1090 FILLER_33_279
*1091 FILLER_33_281
*1092 FILLER_33_293
*1093 FILLER_33_3
*1094 FILLER_33_39
*1095 FILLER_33_51
*1096 FILLER_33_55
*1097 FILLER_33_57
*1098 FILLER_33_69
*1099 FILLER_33_81
*1100 FILLER_33_93
*1101 FILLER_34_109
*1102 FILLER_34_117
*1103 FILLER_34_136
*1104 FILLER_34_141
*1105 FILLER_34_15
*1106 FILLER_34_153
*1107 FILLER_34_172
*1108 FILLER_34_192
*1109 FILLER_34_197
*1110 FILLER_34_209
*1111 FILLER_34_221
*1112 FILLER_34_233
*1113 FILLER_34_245
*1114 FILLER_34_251
*1115 FILLER_34_253
*1116 FILLER_34_265
*1117 FILLER_34_27
*1118 FILLER_34_277
*1119 FILLER_34_289
*1120 FILLER_34_29
*1121 FILLER_34_297
*1122 FILLER_34_3
*1123 FILLER_34_41
*1124 FILLER_34_53
*1125 FILLER_34_65
*1126 FILLER_34_77
*1127 FILLER_34_83
*1128 FILLER_34_85
*1129 FILLER_34_97
*1130 FILLER_35_105
*1131 FILLER_35_111
*1132 FILLER_35_113
*1133 FILLER_35_125
*1134 FILLER_35_143
*1135 FILLER_35_15
*1136 FILLER_35_155
*1137 FILLER_35_167
*1138 FILLER_35_169
*1139 FILLER_35_181
*1140 FILLER_35_193
*1141 FILLER_35_205
*1142 FILLER_35_217
*1143 FILLER_35_223
*1144 FILLER_35_225
*1145 FILLER_35_237
*1146 FILLER_35_249
*1147 FILLER_35_261
*1148 FILLER_35_27
*1149 FILLER_35_273
*1150 FILLER_35_279
*1151 FILLER_35_281
*1152 FILLER_35_293
*1153 FILLER_35_3
*1154 FILLER_35_39
*1155 FILLER_35_51
*1156 FILLER_35_55
*1157 FILLER_35_57
*1158 FILLER_35_69
*1159 FILLER_35_81
*1160 FILLER_35_93
*1161 FILLER_36_109
*1162 FILLER_36_121
*1163 FILLER_36_127
*1164 FILLER_36_131
*1165 FILLER_36_139
*1166 FILLER_36_141
*1167 FILLER_36_15
*1168 FILLER_36_153
*1169 FILLER_36_161
*1170 FILLER_36_169
*1171 FILLER_36_175
*1172 FILLER_36_192
*1173 FILLER_36_197
*1174 FILLER_36_209
*1175 FILLER_36_221
*1176 FILLER_36_233
*1177 FILLER_36_245
*1178 FILLER_36_251
*1179 FILLER_36_253
*1180 FILLER_36_265
*1181 FILLER_36_27
*1182 FILLER_36_277
*1183 FILLER_36_289
*1184 FILLER_36_29
*1185 FILLER_36_297
*1186 FILLER_36_3
*1187 FILLER_36_41
*1188 FILLER_36_53
*1189 FILLER_36_65
*1190 FILLER_36_77
*1191 FILLER_36_83
*1192 FILLER_36_85
*1193 FILLER_36_97
*1194 FILLER_37_105
*1195 FILLER_37_111
*1196 FILLER_37_129
*1197 FILLER_37_138
*1198 FILLER_37_15
*1199 FILLER_37_150
*1200 FILLER_37_159
*1201 FILLER_37_167
*1202 FILLER_37_169
*1203 FILLER_37_175
*1204 FILLER_37_184
*1205 FILLER_37_192
*1206 FILLER_37_197
*1207 FILLER_37_209
*1208 FILLER_37_221
*1209 FILLER_37_225
*1210 FILLER_37_237
*1211 FILLER_37_249
*1212 FILLER_37_261
*1213 FILLER_37_27
*1214 FILLER_37_273
*1215 FILLER_37_279
*1216 FILLER_37_281
*1217 FILLER_37_293
*1218 FILLER_37_3
*1219 FILLER_37_39
*1220 FILLER_37_51
*1221 FILLER_37_55
*1222 FILLER_37_57
*1223 FILLER_37_69
*1224 FILLER_37_81
*1225 FILLER_37_93
*1226 FILLER_38_109
*1227 FILLER_38_121
*1228 FILLER_38_125
*1229 FILLER_38_132
*1230 FILLER_38_144
*1231 FILLER_38_15
*1232 FILLER_38_158
*1233 FILLER_38_170
*1234 FILLER_38_182
*1235 FILLER_38_194
*1236 FILLER_38_197
*1237 FILLER_38_209
*1238 FILLER_38_221
*1239 FILLER_38_233
*1240 FILLER_38_245
*1241 FILLER_38_251
*1242 FILLER_38_253
*1243 FILLER_38_265
*1244 FILLER_38_27
*1245 FILLER_38_277
*1246 FILLER_38_289
*1247 FILLER_38_29
*1248 FILLER_38_297
*1249 FILLER_38_3
*1250 FILLER_38_41
*1251 FILLER_38_53
*1252 FILLER_38_65
*1253 FILLER_38_77
*1254 FILLER_38_83
*1255 FILLER_38_85
*1256 FILLER_38_97
*1257 FILLER_39_105
*1258 FILLER_39_111
*1259 FILLER_39_113
*1260 FILLER_39_125
*1261 FILLER_39_132
*1262 FILLER_39_136
*1263 FILLER_39_140
*1264 FILLER_39_15
*1265 FILLER_39_152
*1266 FILLER_39_159
*1267 FILLER_39_167
*1268 FILLER_39_169
*1269 FILLER_39_177
*1270 FILLER_39_194
*1271 FILLER_39_206
*1272 FILLER_39_218
*1273 FILLER_39_225
*1274 FILLER_39_237
*1275 FILLER_39_249
*1276 FILLER_39_261
*1277 FILLER_39_27
*1278 FILLER_39_273
*1279 FILLER_39_279
*1280 FILLER_39_281
*1281 FILLER_39_293
*1282 FILLER_39_3
*1283 FILLER_39_39
*1284 FILLER_39_51
*1285 FILLER_39_55
*1286 FILLER_39_57
*1287 FILLER_39_69
*1288 FILLER_39_81
*1289 FILLER_39_93
*1290 FILLER_3_105
*1291 FILLER_3_111
*1292 FILLER_3_113
*1293 FILLER_3_125
*1294 FILLER_3_137
*1295 FILLER_3_149
*1296 FILLER_3_15
*1297 FILLER_3_161
*1298 FILLER_3_167
*1299 FILLER_3_169
*1300 FILLER_3_181
*1301 FILLER_3_193
*1302 FILLER_3_205
*1303 FILLER_3_217
*1304 FILLER_3_223
*1305 FILLER_3_225
*1306 FILLER_3_237
*1307 FILLER_3_249
*1308 FILLER_3_261
*1309 FILLER_3_27
*1310 FILLER_3_273
*1311 FILLER_3_279
*1312 FILLER_3_281
*1313 FILLER_3_293
*1314 FILLER_3_3
*1315 FILLER_3_39
*1316 FILLER_3_51
*1317 FILLER_3_55
*1318 FILLER_3_57
*1319 FILLER_3_69
*1320 FILLER_3_81
*1321 FILLER_3_93
*1322 FILLER_40_109
*1323 FILLER_40_121
*1324 FILLER_40_135
*1325 FILLER_40_139
*1326 FILLER_40_141
*1327 FILLER_40_15
*1328 FILLER_40_154
*1329 FILLER_40_178
*1330 FILLER_40_184
*1331 FILLER_40_192
*1332 FILLER_40_202
*1333 FILLER_40_210
*1334 FILLER_40_222
*1335 FILLER_40_234
*1336 FILLER_40_246
*1337 FILLER_40_253
*1338 FILLER_40_265
*1339 FILLER_40_27
*1340 FILLER_40_277
*1341 FILLER_40_289
*1342 FILLER_40_29
*1343 FILLER_40_297
*1344 FILLER_40_3
*1345 FILLER_40_41
*1346 FILLER_40_53
*1347 FILLER_40_65
*1348 FILLER_40_77
*1349 FILLER_40_83
*1350 FILLER_40_85
*1351 FILLER_40_97
*1352 FILLER_41_105
*1353 FILLER_41_111
*1354 FILLER_41_113
*1355 FILLER_41_125
*1356 FILLER_41_133
*1357 FILLER_41_145
*1358 FILLER_41_15
*1359 FILLER_41_151
*1360 FILLER_41_162
*1361 FILLER_41_175
*1362 FILLER_41_183
*1363 FILLER_41_206
*1364 FILLER_41_220
*1365 FILLER_41_225
*1366 FILLER_41_237
*1367 FILLER_41_249
*1368 FILLER_41_261
*1369 FILLER_41_27
*1370 FILLER_41_273
*1371 FILLER_41_279
*1372 FILLER_41_281
*1373 FILLER_41_293
*1374 FILLER_41_3
*1375 FILLER_41_39
*1376 FILLER_41_51
*1377 FILLER_41_55
*1378 FILLER_41_57
*1379 FILLER_41_69
*1380 FILLER_41_81
*1381 FILLER_41_93
*1382 FILLER_42_109
*1383 FILLER_42_121
*1384 FILLER_42_131
*1385 FILLER_42_139
*1386 FILLER_42_141
*1387 FILLER_42_15
*1388 FILLER_42_150
*1389 FILLER_42_158
*1390 FILLER_42_166
*1391 FILLER_42_174
*1392 FILLER_42_179
*1393 FILLER_42_187
*1394 FILLER_42_195
*1395 FILLER_42_197
*1396 FILLER_42_206
*1397 FILLER_42_214
*1398 FILLER_42_224
*1399 FILLER_42_234
*1400 FILLER_42_246
*1401 FILLER_42_253
*1402 FILLER_42_265
*1403 FILLER_42_27
*1404 FILLER_42_277
*1405 FILLER_42_289
*1406 FILLER_42_29
*1407 FILLER_42_297
*1408 FILLER_42_3
*1409 FILLER_42_41
*1410 FILLER_42_53
*1411 FILLER_42_65
*1412 FILLER_42_77
*1413 FILLER_42_83
*1414 FILLER_42_85
*1415 FILLER_42_97
*1416 FILLER_43_105
*1417 FILLER_43_111
*1418 FILLER_43_113
*1419 FILLER_43_129
*1420 FILLER_43_133
*1421 FILLER_43_137
*1422 FILLER_43_145
*1423 FILLER_43_15
*1424 FILLER_43_153
*1425 FILLER_43_162
*1426 FILLER_43_174
*1427 FILLER_43_181
*1428 FILLER_43_190
*1429 FILLER_43_198
*1430 FILLER_43_206
*1431 FILLER_43_210
*1432 FILLER_43_220
*1433 FILLER_43_233
*1434 FILLER_43_241
*1435 FILLER_43_263
*1436 FILLER_43_27
*1437 FILLER_43_275
*1438 FILLER_43_279
*1439 FILLER_43_281
*1440 FILLER_43_287
*1441 FILLER_43_295
*1442 FILLER_43_3
*1443 FILLER_43_39
*1444 FILLER_43_51
*1445 FILLER_43_55
*1446 FILLER_43_57
*1447 FILLER_43_69
*1448 FILLER_43_81
*1449 FILLER_43_93
*1450 FILLER_44_109
*1451 FILLER_44_120
*1452 FILLER_44_128
*1453 FILLER_44_136
*1454 FILLER_44_15
*1455 FILLER_44_151
*1456 FILLER_44_157
*1457 FILLER_44_178
*1458 FILLER_44_187
*1459 FILLER_44_195
*1460 FILLER_44_205
*1461 FILLER_44_213
*1462 FILLER_44_234
*1463 FILLER_44_248
*1464 FILLER_44_260
*1465 FILLER_44_269
*1466 FILLER_44_27
*1467 FILLER_44_275
*1468 FILLER_44_281
*1469 FILLER_44_29
*1470 FILLER_44_292
*1471 FILLER_44_298
*1472 FILLER_44_3
*1473 FILLER_44_41
*1474 FILLER_44_53
*1475 FILLER_44_65
*1476 FILLER_44_77
*1477 FILLER_44_83
*1478 FILLER_44_85
*1479 FILLER_44_97
*1480 FILLER_45_105
*1481 FILLER_45_111
*1482 FILLER_45_113
*1483 FILLER_45_127
*1484 FILLER_45_133
*1485 FILLER_45_140
*1486 FILLER_45_15
*1487 FILLER_45_164
*1488 FILLER_45_169
*1489 FILLER_45_182
*1490 FILLER_45_206
*1491 FILLER_45_219
*1492 FILLER_45_223
*1493 FILLER_45_225
*1494 FILLER_45_249
*1495 FILLER_45_27
*1496 FILLER_45_273
*1497 FILLER_45_279
*1498 FILLER_45_288
*1499 FILLER_45_296
*1500 FILLER_45_3
*1501 FILLER_45_39
*1502 FILLER_45_51
*1503 FILLER_45_55
*1504 FILLER_45_57
*1505 FILLER_45_69
*1506 FILLER_45_81
*1507 FILLER_45_93
*1508 FILLER_46_108
*1509 FILLER_46_116
*1510 FILLER_46_129
*1511 FILLER_46_136
*1512 FILLER_46_145
*1513 FILLER_46_15
*1514 FILLER_46_154
*1515 FILLER_46_178
*1516 FILLER_46_182
*1517 FILLER_46_192
*1518 FILLER_46_197
*1519 FILLER_46_221
*1520 FILLER_46_245
*1521 FILLER_46_251
*1522 FILLER_46_253
*1523 FILLER_46_27
*1524 FILLER_46_277
*1525 FILLER_46_288
*1526 FILLER_46_29
*1527 FILLER_46_296
*1528 FILLER_46_3
*1529 FILLER_46_41
*1530 FILLER_46_53
*1531 FILLER_46_65
*1532 FILLER_46_77
*1533 FILLER_46_83
*1534 FILLER_46_85
*1535 FILLER_46_97
*1536 FILLER_47_108
*1537 FILLER_47_117
*1538 FILLER_47_126
*1539 FILLER_47_137
*1540 FILLER_47_145
*1541 FILLER_47_15
*1542 FILLER_47_153
*1543 FILLER_47_164
*1544 FILLER_47_169
*1545 FILLER_47_182
*1546 FILLER_47_206
*1547 FILLER_47_219
*1548 FILLER_47_223
*1549 FILLER_47_225
*1550 FILLER_47_249
*1551 FILLER_47_27
*1552 FILLER_47_273
*1553 FILLER_47_278
*1554 FILLER_47_288
*1555 FILLER_47_292
*1556 FILLER_47_298
*1557 FILLER_47_3
*1558 FILLER_47_39
*1559 FILLER_47_51
*1560 FILLER_47_55
*1561 FILLER_47_57
*1562 FILLER_47_69
*1563 FILLER_47_81
*1564 FILLER_47_93
*1565 FILLER_48_116
*1566 FILLER_48_124
*1567 FILLER_48_134
*1568 FILLER_48_147
*1569 FILLER_48_15
*1570 FILLER_48_154
*1571 FILLER_48_178
*1572 FILLER_48_192
*1573 FILLER_48_197
*1574 FILLER_48_221
*1575 FILLER_48_245
*1576 FILLER_48_251
*1577 FILLER_48_253
*1578 FILLER_48_27
*1579 FILLER_48_275
*1580 FILLER_48_279
*1581 FILLER_48_288
*1582 FILLER_48_29
*1583 FILLER_48_295
*1584 FILLER_48_3
*1585 FILLER_48_41
*1586 FILLER_48_53
*1587 FILLER_48_65
*1588 FILLER_48_77
*1589 FILLER_48_83
*1590 FILLER_48_85
*1591 FILLER_48_93
*1592 FILLER_48_99
*1593 FILLER_49_108
*1594 FILLER_49_113
*1595 FILLER_49_124
*1596 FILLER_49_132
*1597 FILLER_49_140
*1598 FILLER_49_15
*1599 FILLER_49_164
*1600 FILLER_49_169
*1601 FILLER_49_193
*1602 FILLER_49_217
*1603 FILLER_49_223
*1604 FILLER_49_225
*1605 FILLER_49_249
*1606 FILLER_49_27
*1607 FILLER_49_273
*1608 FILLER_49_279
*1609 FILLER_49_288
*1610 FILLER_49_295
*1611 FILLER_49_3
*1612 FILLER_49_39
*1613 FILLER_49_51