*SPEF "ieee 1481-1999"
*DESIGN "aramsey118_freq_counter"
*DATE "11:11:11 Fri 11 11, 1111"
*VENDOR "OpenRCX"
*PROGRAM "Parallel Extraction"
*VERSION "1.0"
*DESIGN_FLOW "NAME_SCOPE LOCAL" "PIN_CAP NONE"
*DIVIDER /
*DELIMITER :
*BUS_DELIMITER []
*T_UNIT 1 NS
*C_UNIT 1 PF
*R_UNIT 1 OHM
*L_UNIT 1 HENRY

*NAME_MAP
*1 io_in[0]
*2 io_in[1]
*3 io_in[2]
*4 io_in[3]
*5 io_in[4]
*6 io_in[5]
*7 io_in[6]
*8 io_in[7]
*9 io_out[0]
*10 io_out[1]
*11 io_out[2]
*12 io_out[3]
*13 io_out[4]
*14 io_out[5]
*15 io_out[6]
*16 io_out[7]
*19 _0000_
*20 _0001_
*21 _0002_
*22 _0003_
*23 _0004_
*24 _0005_
*25 _0006_
*26 _0007_
*27 _0008_
*28 _0009_
*29 _0010_
*30 _0011_
*31 _0012_
*32 _0013_
*33 _0014_
*34 _0015_
*35 _0016_
*36 _0017_
*37 _0018_
*38 _0019_
*39 _0020_
*40 _0021_
*41 _0022_
*42 _0023_
*43 _0024_
*44 _0025_
*45 _0026_
*46 _0027_
*47 _0028_
*48 _0029_
*49 _0030_
*50 _0031_
*51 _0032_
*52 _0033_
*53 _0034_
*54 _0035_
*55 _0036_
*56 _0037_
*57 _0038_
*58 _0039_
*59 _0040_
*60 _0041_
*61 _0042_
*62 _0043_
*63 _0044_
*64 _0045_
*65 _0046_
*66 _0047_
*67 _0048_
*68 _0049_
*69 _0050_
*70 _0051_
*71 _0052_
*72 _0053_
*73 _0054_
*74 _0055_
*75 _0056_
*76 _0057_
*77 _0058_
*78 _0059_
*79 _0060_
*80 _0061_
*81 _0062_
*82 _0063_
*83 _0064_
*84 _0065_
*85 _0066_
*86 _0067_
*87 _0068_
*88 _0069_
*89 _0070_
*90 _0071_
*91 _0072_
*92 _0073_
*93 _0074_
*94 _0075_
*95 _0076_
*96 _0077_
*97 _0078_
*98 _0079_
*99 _0080_
*100 _0081_
*101 _0082_
*102 _0083_
*103 _0084_
*104 _0085_
*105 _0086_
*106 _0087_
*107 _0088_
*108 _0089_
*109 _0090_
*110 _0091_
*111 _0092_
*112 _0093_
*113 _0094_
*114 _0095_
*115 _0096_
*116 _0097_
*117 _0098_
*118 _0099_
*119 _0100_
*120 _0101_
*121 _0102_
*122 _0103_
*123 _0104_
*124 _0105_
*125 _0106_
*126 _0107_
*127 _0108_
*128 _0109_
*129 _0110_
*130 _0111_
*131 _0112_
*132 _0113_
*133 _0114_
*134 _0115_
*135 _0116_
*136 _0117_
*137 _0118_
*138 _0119_
*139 _0120_
*140 _0121_
*141 _0122_
*142 _0123_
*143 _0124_
*144 _0125_
*145 _0126_
*146 _0127_
*147 _0128_
*148 _0129_
*149 _0130_
*150 _0131_
*151 _0132_
*152 _0133_
*153 _0134_
*154 _0135_
*155 _0136_
*156 _0137_
*157 _0138_
*158 _0139_
*159 _0140_
*160 _0141_
*161 _0142_
*162 _0143_
*163 _0144_
*164 _0145_
*165 _0146_
*166 _0147_
*167 _0148_
*168 _0149_
*169 _0150_
*170 _0151_
*171 _0152_
*172 _0153_
*173 _0154_
*174 _0155_
*175 _0156_
*176 _0157_
*177 _0158_
*178 _0159_
*179 _0160_
*180 _0161_
*181 _0162_
*182 _0163_
*183 _0164_
*184 _0165_
*185 _0166_
*186 _0167_
*187 _0168_
*188 _0169_
*189 _0170_
*190 _0171_
*191 _0172_
*192 _0173_
*193 _0174_
*194 _0175_
*195 _0176_
*196 _0177_
*197 _0178_
*198 _0179_
*199 _0180_
*200 _0181_
*201 _0182_
*202 _0183_
*203 _0184_
*204 _0185_
*205 _0186_
*206 _0187_
*207 _0188_
*208 _0189_
*209 _0190_
*210 _0191_
*211 _0192_
*212 _0193_
*213 _0194_
*214 _0195_
*215 _0196_
*216 _0197_
*217 _0198_
*218 _0199_
*219 _0200_
*220 _0201_
*221 _0202_
*222 _0203_
*223 _0204_
*224 _0205_
*225 _0206_
*226 _0207_
*227 _0208_
*228 _0209_
*229 _0210_
*230 _0211_
*231 _0212_
*232 _0213_
*233 _0214_
*234 _0215_
*235 _0216_
*236 _0217_
*237 _0218_
*238 _0219_
*239 _0220_
*240 _0221_
*241 _0222_
*242 _0223_
*243 _0224_
*244 _0225_
*245 _0226_
*246 _0227_
*247 _0228_
*248 _0229_
*249 _0230_
*250 _0231_
*251 _0232_
*252 _0233_
*253 _0234_
*254 _0235_
*255 _0236_
*256 _0237_
*257 _0238_
*258 _0239_
*259 _0240_
*260 _0241_
*261 _0242_
*262 _0243_
*263 _0244_
*264 _0245_
*265 _0246_
*266 _0247_
*267 _0248_
*268 _0249_
*269 _0250_
*270 _0251_
*271 _0252_
*272 _0253_
*273 _0254_
*274 _0255_
*275 _0256_
*276 _0257_
*277 _0258_
*278 _0259_
*279 _0260_
*280 _0261_
*281 _0262_
*282 _0263_
*283 _0264_
*284 _0265_
*285 _0266_
*286 _0267_
*287 _0268_
*288 _0269_
*289 _0270_
*290 _0271_
*291 _0272_
*292 _0273_
*293 _0274_
*294 _0275_
*295 _0276_
*296 _0277_
*297 _0278_
*298 _0279_
*299 _0280_
*300 _0281_
*301 _0282_
*302 _0283_
*303 _0284_
*304 _0285_
*305 _0286_
*306 _0287_
*307 _0288_
*308 _0289_
*309 _0290_
*310 _0291_
*311 _0292_
*312 _0293_
*313 _0294_
*314 _0295_
*315 _0296_
*316 _0297_
*317 _0298_
*318 _0299_
*319 _0300_
*320 _0301_
*321 _0302_
*322 _0303_
*323 _0304_
*324 _0305_
*325 _0306_
*326 _0307_
*327 _0308_
*328 _0309_
*329 _0310_
*330 _0311_
*331 _0312_
*332 _0313_
*333 _0314_
*334 _0315_
*335 _0316_
*336 _0317_
*337 _0318_
*338 _0319_
*339 _0320_
*340 _0321_
*341 _0322_
*342 _0323_
*343 _0324_
*344 _0325_
*345 _0326_
*346 _0327_
*347 _0328_
*348 _0329_
*349 _0330_
*350 _0331_
*351 _0332_
*352 _0333_
*353 _0334_
*354 _0335_
*355 _0336_
*356 _0337_
*357 _0338_
*358 _0339_
*359 _0340_
*360 _0341_
*361 _0342_
*362 _0343_
*363 _0344_
*364 _0345_
*365 _0346_
*366 _0347_
*367 _0348_
*368 _0349_
*369 _0350_
*370 _0351_
*371 _0352_
*372 _0353_
*373 _0354_
*374 _0355_
*375 _0356_
*376 _0357_
*377 _0358_
*378 _0359_
*379 _0360_
*380 _0361_
*381 _0362_
*382 _0363_
*383 _0364_
*384 _0365_
*385 _0366_
*386 _0367_
*387 _0368_
*388 _0369_
*389 _0370_
*390 _0371_
*391 _0372_
*392 _0373_
*393 _0374_
*394 _0375_
*395 _0376_
*396 _0377_
*397 _0378_
*398 _0379_
*399 _0380_
*400 _0381_
*401 _0382_
*402 _0383_
*403 _0384_
*404 _0385_
*405 _0386_
*406 _0387_
*407 _0388_
*408 _0389_
*409 _0390_
*410 _0391_
*411 _0392_
*412 _0393_
*413 _0394_
*414 _0395_
*415 _0396_
*416 _0397_
*417 _0398_
*418 _0399_
*419 _0400_
*420 _0401_
*421 _0402_
*422 _0403_
*423 _0404_
*424 _0405_
*425 _0406_
*426 _0407_
*427 _0408_
*428 _0409_
*429 _0410_
*430 _0411_
*431 _0412_
*432 _0413_
*433 _0414_
*434 _0415_
*435 _0416_
*436 _0417_
*437 _0418_
*438 _0419_
*439 _0420_
*440 _0421_
*441 _0422_
*442 _0423_
*443 _0424_
*444 _0425_
*445 _0426_
*446 _0427_
*447 _0428_
*448 _0429_
*449 _0430_
*450 _0431_
*451 _0432_
*452 _0433_
*453 _0434_
*454 _0435_
*455 _0436_
*456 _0437_
*457 _0438_
*458 _0439_
*459 _0440_
*460 _0441_
*461 _0442_
*462 _0443_
*463 _0444_
*464 _0445_
*465 _0446_
*466 _0447_
*467 _0448_
*468 _0449_
*469 _0450_
*470 _0451_
*471 _0452_
*472 _0453_
*473 _0454_
*474 _0455_
*475 _0456_
*476 _0457_
*477 _0458_
*478 _0459_
*479 _0460_
*480 _0461_
*481 _0462_
*482 _0463_
*483 _0464_
*484 _0465_
*485 _0466_
*486 _0467_
*487 _0468_
*488 _0469_
*489 _0470_
*490 _0471_
*491 _0472_
*492 _0473_
*493 _0474_
*494 _0475_
*495 _0476_
*496 _0477_
*497 _0478_
*498 _0479_
*499 _0480_
*500 _0481_
*501 _0482_
*502 _0483_
*503 _0484_
*504 _0485_
*505 _0486_
*506 _0487_
*507 _0488_
*508 _0489_
*509 _0490_
*510 _0491_
*511 _0492_
*512 _0493_
*513 _0494_
*514 _0495_
*515 _0496_
*516 _0497_
*517 _0498_
*518 _0499_
*519 _0500_
*520 _0501_
*521 _0502_
*522 _0503_
*523 _0504_
*524 _0505_
*525 _0506_
*526 _0507_
*527 _0508_
*528 _0509_
*529 _0510_
*530 _0511_
*531 _0512_
*532 _0513_
*533 _0514_
*534 _0515_
*535 _0516_
*536 _0517_
*537 _0518_
*538 _0519_
*539 _0520_
*540 _0521_
*541 _0522_
*542 _0523_
*543 _0524_
*544 _0525_
*545 _0526_
*546 _0527_
*547 _0528_
*548 _0529_
*549 _0530_
*550 _0531_
*551 _0532_
*552 _0533_
*553 _0534_
*554 _0535_
*555 _0536_
*556 _0537_
*557 _0538_
*558 _0539_
*559 _0540_
*560 _0541_
*561 _0542_
*562 _0543_
*563 _0544_
*564 _0545_
*565 _0546_
*566 _0547_
*567 _0548_
*568 _0549_
*569 _0550_
*570 _0551_
*571 _0552_
*572 _0553_
*573 _0554_
*574 _0555_
*575 _0556_
*576 _0557_
*577 _0558_
*578 clknet_0_io_in[0]
*579 clknet_1_0__leaf_io_in[0]
*580 clknet_1_1__leaf_io_in[0]
*581 clknet_leaf_0_io_in[0]
*582 clknet_leaf_10_io_in[0]
*583 clknet_leaf_11_io_in[0]
*584 clknet_leaf_12_io_in[0]
*585 clknet_leaf_13_io_in[0]
*586 clknet_leaf_14_io_in[0]
*587 clknet_leaf_1_io_in[0]
*588 clknet_leaf_2_io_in[0]
*589 clknet_leaf_3_io_in[0]
*590 clknet_leaf_4_io_in[0]
*591 clknet_leaf_5_io_in[0]
*592 clknet_leaf_6_io_in[0]
*593 clknet_leaf_7_io_in[0]
*594 clknet_leaf_8_io_in[0]
*595 clknet_leaf_9_io_in[0]
*596 digit\[0\]
*597 digit\[1\]
*598 digit\[2\]
*599 digit\[3\]
*600 digit\[4\]
*601 digit\[5\]
*602 digit\[6\]
*603 digit\[7\]
*604 digit\[8\]
*605 digit\[9\]
*606 moving_avg\.avg\[0\]
*607 moving_avg\.avg\[1\]
*608 moving_avg\.avg\[2\]
*609 moving_avg\.avg\[3\]
*610 moving_avg\.avg\[4\]
*611 moving_avg\.avg\[5\]
*612 moving_avg\.avg\[6\]
*613 moving_avg\.avg\[7\]
*614 moving_avg\.data_i
*615 moving_avg\.shift_out
*616 moving_avg\.shift_reg\.register\[0\]
*617 moving_avg\.shift_reg\.register\[100\]
*618 moving_avg\.shift_reg\.register\[101\]
*619 moving_avg\.shift_reg\.register\[102\]
*620 moving_avg\.shift_reg\.register\[103\]
*621 moving_avg\.shift_reg\.register\[104\]
*622 moving_avg\.shift_reg\.register\[105\]
*623 moving_avg\.shift_reg\.register\[106\]
*624 moving_avg\.shift_reg\.register\[107\]
*625 moving_avg\.shift_reg\.register\[108\]
*626 moving_avg\.shift_reg\.register\[109\]
*627 moving_avg\.shift_reg\.register\[10\]
*628 moving_avg\.shift_reg\.register\[110\]
*629 moving_avg\.shift_reg\.register\[111\]
*630 moving_avg\.shift_reg\.register\[112\]
*631 moving_avg\.shift_reg\.register\[113\]
*632 moving_avg\.shift_reg\.register\[114\]
*633 moving_avg\.shift_reg\.register\[115\]
*634 moving_avg\.shift_reg\.register\[116\]
*635 moving_avg\.shift_reg\.register\[117\]
*636 moving_avg\.shift_reg\.register\[118\]
*637 moving_avg\.shift_reg\.register\[119\]
*638 moving_avg\.shift_reg\.register\[11\]
*639 moving_avg\.shift_reg\.register\[120\]
*640 moving_avg\.shift_reg\.register\[121\]
*641 moving_avg\.shift_reg\.register\[122\]
*642 moving_avg\.shift_reg\.register\[123\]
*643 moving_avg\.shift_reg\.register\[124\]
*644 moving_avg\.shift_reg\.register\[125\]
*645 moving_avg\.shift_reg\.register\[126\]
*646 moving_avg\.shift_reg\.register\[127\]
*647 moving_avg\.shift_reg\.register\[128\]
*648 moving_avg\.shift_reg\.register\[129\]
*649 moving_avg\.shift_reg\.register\[12\]
*650 moving_avg\.shift_reg\.register\[130\]
*651 moving_avg\.shift_reg\.register\[131\]
*652 moving_avg\.shift_reg\.register\[132\]
*653 moving_avg\.shift_reg\.register\[133\]
*654 moving_avg\.shift_reg\.register\[134\]
*655 moving_avg\.shift_reg\.register\[135\]
*656 moving_avg\.shift_reg\.register\[136\]
*657 moving_avg\.shift_reg\.register\[137\]
*658 moving_avg\.shift_reg\.register\[138\]
*659 moving_avg\.shift_reg\.register\[139\]
*660 moving_avg\.shift_reg\.register\[13\]
*661 moving_avg\.shift_reg\.register\[140\]
*662 moving_avg\.shift_reg\.register\[141\]
*663 moving_avg\.shift_reg\.register\[142\]
*664 moving_avg\.shift_reg\.register\[143\]
*665 moving_avg\.shift_reg\.register\[144\]
*666 moving_avg\.shift_reg\.register\[145\]
*667 moving_avg\.shift_reg\.register\[146\]
*668 moving_avg\.shift_reg\.register\[147\]
*669 moving_avg\.shift_reg\.register\[148\]
*670 moving_avg\.shift_reg\.register\[149\]
*671 moving_avg\.shift_reg\.register\[14\]
*672 moving_avg\.shift_reg\.register\[150\]
*673 moving_avg\.shift_reg\.register\[151\]
*674 moving_avg\.shift_reg\.register\[152\]
*675 moving_avg\.shift_reg\.register\[153\]
*676 moving_avg\.shift_reg\.register\[154\]
*677 moving_avg\.shift_reg\.register\[155\]
*678 moving_avg\.shift_reg\.register\[156\]
*679 moving_avg\.shift_reg\.register\[157\]
*680 moving_avg\.shift_reg\.register\[158\]
*681 moving_avg\.shift_reg\.register\[159\]
*682 moving_avg\.shift_reg\.register\[15\]
*683 moving_avg\.shift_reg\.register\[160\]
*684 moving_avg\.shift_reg\.register\[161\]
*685 moving_avg\.shift_reg\.register\[162\]
*686 moving_avg\.shift_reg\.register\[163\]
*687 moving_avg\.shift_reg\.register\[164\]
*688 moving_avg\.shift_reg\.register\[165\]
*689 moving_avg\.shift_reg\.register\[166\]
*690 moving_avg\.shift_reg\.register\[167\]
*691 moving_avg\.shift_reg\.register\[168\]
*692 moving_avg\.shift_reg\.register\[169\]
*693 moving_avg\.shift_reg\.register\[16\]
*694 moving_avg\.shift_reg\.register\[170\]
*695 moving_avg\.shift_reg\.register\[171\]
*696 moving_avg\.shift_reg\.register\[172\]
*697 moving_avg\.shift_reg\.register\[173\]
*698 moving_avg\.shift_reg\.register\[174\]
*699 moving_avg\.shift_reg\.register\[175\]
*700 moving_avg\.shift_reg\.register\[176\]
*701 moving_avg\.shift_reg\.register\[177\]
*702 moving_avg\.shift_reg\.register\[178\]
*703 moving_avg\.shift_reg\.register\[179\]
*704 moving_avg\.shift_reg\.register\[17\]
*705 moving_avg\.shift_reg\.register\[180\]
*706 moving_avg\.shift_reg\.register\[181\]
*707 moving_avg\.shift_reg\.register\[182\]
*708 moving_avg\.shift_reg\.register\[183\]
*709 moving_avg\.shift_reg\.register\[184\]
*710 moving_avg\.shift_reg\.register\[185\]
*711 moving_avg\.shift_reg\.register\[186\]
*712 moving_avg\.shift_reg\.register\[187\]
*713 moving_avg\.shift_reg\.register\[188\]
*714 moving_avg\.shift_reg\.register\[189\]
*715 moving_avg\.shift_reg\.register\[18\]
*716 moving_avg\.shift_reg\.register\[190\]
*717 moving_avg\.shift_reg\.register\[191\]
*718 moving_avg\.shift_reg\.register\[192\]
*719 moving_avg\.shift_reg\.register\[193\]
*720 moving_avg\.shift_reg\.register\[194\]
*721 moving_avg\.shift_reg\.register\[195\]
*722 moving_avg\.shift_reg\.register\[196\]
*723 moving_avg\.shift_reg\.register\[197\]
*724 moving_avg\.shift_reg\.register\[198\]
*725 moving_avg\.shift_reg\.register\[19\]
*726 moving_avg\.shift_reg\.register\[1\]
*727 moving_avg\.shift_reg\.register\[20\]
*728 moving_avg\.shift_reg\.register\[21\]
*729 moving_avg\.shift_reg\.register\[22\]
*730 moving_avg\.shift_reg\.register\[23\]
*731 moving_avg\.shift_reg\.register\[24\]
*732 moving_avg\.shift_reg\.register\[25\]
*733 moving_avg\.shift_reg\.register\[26\]
*734 moving_avg\.shift_reg\.register\[27\]
*735 moving_avg\.shift_reg\.register\[28\]
*736 moving_avg\.shift_reg\.register\[29\]
*737 moving_avg\.shift_reg\.register\[2\]
*738 moving_avg\.shift_reg\.register\[30\]
*739 moving_avg\.shift_reg\.register\[31\]
*740 moving_avg\.shift_reg\.register\[32\]
*741 moving_avg\.shift_reg\.register\[33\]
*742 moving_avg\.shift_reg\.register\[34\]
*743 moving_avg\.shift_reg\.register\[35\]
*744 moving_avg\.shift_reg\.register\[36\]
*745 moving_avg\.shift_reg\.register\[37\]
*746 moving_avg\.shift_reg\.register\[38\]
*747 moving_avg\.shift_reg\.register\[39\]
*748 moving_avg\.shift_reg\.register\[3\]
*749 moving_avg\.shift_reg\.register\[40\]
*750 moving_avg\.shift_reg\.register\[41\]
*751 moving_avg\.shift_reg\.register\[42\]
*752 moving_avg\.shift_reg\.register\[43\]
*753 moving_avg\.shift_reg\.register\[44\]
*754 moving_avg\.shift_reg\.register\[45\]
*755 moving_avg\.shift_reg\.register\[46\]
*756 moving_avg\.shift_reg\.register\[47\]
*757 moving_avg\.shift_reg\.register\[48\]
*758 moving_avg\.shift_reg\.register\[49\]
*759 moving_avg\.shift_reg\.register\[4\]
*760 moving_avg\.shift_reg\.register\[50\]
*761 moving_avg\.shift_reg\.register\[51\]
*762 moving_avg\.shift_reg\.register\[52\]
*763 moving_avg\.shift_reg\.register\[53\]
*764 moving_avg\.shift_reg\.register\[54\]
*765 moving_avg\.shift_reg\.register\[55\]
*766 moving_avg\.shift_reg\.register\[56\]
*767 moving_avg\.shift_reg\.register\[57\]
*768 moving_avg\.shift_reg\.register\[58\]
*769 moving_avg\.shift_reg\.register\[59\]
*770 moving_avg\.shift_reg\.register\[5\]
*771 moving_avg\.shift_reg\.register\[60\]
*772 moving_avg\.shift_reg\.register\[61\]
*773 moving_avg\.shift_reg\.register\[62\]
*774 moving_avg\.shift_reg\.register\[63\]
*775 moving_avg\.shift_reg\.register\[64\]
*776 moving_avg\.shift_reg\.register\[65\]
*777 moving_avg\.shift_reg\.register\[66\]
*778 moving_avg\.shift_reg\.register\[67\]
*779 moving_avg\.shift_reg\.register\[68\]
*780 moving_avg\.shift_reg\.register\[69\]
*781 moving_avg\.shift_reg\.register\[6\]
*782 moving_avg\.shift_reg\.register\[70\]
*783 moving_avg\.shift_reg\.register\[71\]
*784 moving_avg\.shift_reg\.register\[72\]
*785 moving_avg\.shift_reg\.register\[73\]
*786 moving_avg\.shift_reg\.register\[74\]
*787 moving_avg\.shift_reg\.register\[75\]
*788 moving_avg\.shift_reg\.register\[76\]
*789 moving_avg\.shift_reg\.register\[77\]
*790 moving_avg\.shift_reg\.register\[78\]
*791 moving_avg\.shift_reg\.register\[79\]
*792 moving_avg\.shift_reg\.register\[7\]
*793 moving_avg\.shift_reg\.register\[80\]
*794 moving_avg\.shift_reg\.register\[81\]
*795 moving_avg\.shift_reg\.register\[82\]
*796 moving_avg\.shift_reg\.register\[83\]
*797 moving_avg\.shift_reg\.register\[84\]
*798 moving_avg\.shift_reg\.register\[85\]
*799 moving_avg\.shift_reg\.register\[86\]
*800 moving_avg\.shift_reg\.register\[87\]
*801 moving_avg\.shift_reg\.register\[88\]
*802 moving_avg\.shift_reg\.register\[89\]
*803 moving_avg\.shift_reg\.register\[8\]
*804 moving_avg\.shift_reg\.register\[90\]
*805 moving_avg\.shift_reg\.register\[91\]
*806 moving_avg\.shift_reg\.register\[92\]
*807 moving_avg\.shift_reg\.register\[93\]
*808 moving_avg\.shift_reg\.register\[94\]
*809 moving_avg\.shift_reg\.register\[95\]
*810 moving_avg\.shift_reg\.register\[96\]
*811 moving_avg\.shift_reg\.register\[97\]
*812 moving_avg\.shift_reg\.register\[98\]
*813 moving_avg\.shift_reg\.register\[99\]
*814 moving_avg\.shift_reg\.register\[9\]
*815 net1
*816 net2
*817 sig_d1
*818 FILLER_0_102
*819 FILLER_0_110
*820 FILLER_0_116
*821 FILLER_0_129
*822 FILLER_0_136
*823 FILLER_0_141
*824 FILLER_0_15
*825 FILLER_0_150
*826 FILLER_0_162
*827 FILLER_0_172
*828 FILLER_0_180
*829 FILLER_0_187
*830 FILLER_0_195
*831 FILLER_0_197
*832 FILLER_0_201
*833 FILLER_0_218
*834 FILLER_0_225
*835 FILLER_0_244
*836 FILLER_0_253
*837 FILLER_0_265
*838 FILLER_0_27
*839 FILLER_0_277
*840 FILLER_0_281
*841 FILLER_0_29
*842 FILLER_0_293
*843 FILLER_0_3
*844 FILLER_0_40
*845 FILLER_0_46
*846 FILLER_0_52
*847 FILLER_0_73
*848 FILLER_0_80
*849 FILLER_0_90
*850 FILLER_10_109
*851 FILLER_10_126
*852 FILLER_10_135
*853 FILLER_10_139
*854 FILLER_10_146
*855 FILLER_10_155
*856 FILLER_10_162
*857 FILLER_10_168
*858 FILLER_10_172
*859 FILLER_10_181
*860 FILLER_10_190
*861 FILLER_10_197
*862 FILLER_10_206
*863 FILLER_10_21
*864 FILLER_10_210
*865 FILLER_10_214
*866 FILLER_10_220
*867 FILLER_10_226
*868 FILLER_10_246
*869 FILLER_10_256
*870 FILLER_10_268
*871 FILLER_10_27
*872 FILLER_10_280
*873 FILLER_10_29
*874 FILLER_10_292
*875 FILLER_10_298
*876 FILLER_10_3
*877 FILLER_10_34
*878 FILLER_10_40
*879 FILLER_10_57
*880 FILLER_10_77
*881 FILLER_10_83
*882 FILLER_10_90
*883 FILLER_10_97
*884 FILLER_11_108
*885 FILLER_11_118
*886 FILLER_11_126
*887 FILLER_11_13
*888 FILLER_11_143
*889 FILLER_11_147
*890 FILLER_11_164
*891 FILLER_11_169
*892 FILLER_11_173
*893 FILLER_11_179
*894 FILLER_11_183
*895 FILLER_11_19
*896 FILLER_11_198
*897 FILLER_11_202
*898 FILLER_11_219
*899 FILLER_11_223
*900 FILLER_11_241
*901 FILLER_11_250
*902 FILLER_11_262
*903 FILLER_11_274
*904 FILLER_11_281
*905 FILLER_11_293
*906 FILLER_11_3
*907 FILLER_11_43
*908 FILLER_11_50
*909 FILLER_11_57
*910 FILLER_11_69
*911 FILLER_11_88
*912 FILLER_11_9
*913 FILLER_12_121
*914 FILLER_12_130
*915 FILLER_12_138
*916 FILLER_12_141
*917 FILLER_12_150
*918 FILLER_12_161
*919 FILLER_12_181
*920 FILLER_12_19
*921 FILLER_12_190
*922 FILLER_12_213
*923 FILLER_12_219
*924 FILLER_12_223
*925 FILLER_12_227
*926 FILLER_12_248
*927 FILLER_12_253
*928 FILLER_12_265
*929 FILLER_12_27
*930 FILLER_12_277
*931 FILLER_12_289
*932 FILLER_12_297
*933 FILLER_12_45
*934 FILLER_12_52
*935 FILLER_12_64
*936 FILLER_12_72
*937 FILLER_12_79
*938 FILLER_12_83
*939 FILLER_12_85
*940 FILLER_12_89
*941 FILLER_13_105
*942 FILLER_13_11
*943 FILLER_13_111
*944 FILLER_13_129
*945 FILLER_13_137
*946 FILLER_13_142
*947 FILLER_13_162
*948 FILLER_13_169
*949 FILLER_13_186
*950 FILLER_13_195
*951 FILLER_13_204
*952 FILLER_13_213
*953 FILLER_13_220
*954 FILLER_13_230
*955 FILLER_13_236
*956 FILLER_13_242
*957 FILLER_13_249
*958 FILLER_13_261
*959 FILLER_13_273
*960 FILLER_13_279
*961 FILLER_13_281
*962 FILLER_13_293
*963 FILLER_13_3
*964 FILLER_13_30
*965 FILLER_13_38
*966 FILLER_13_44
*967 FILLER_13_62
*968 FILLER_13_68
*969 FILLER_13_85
*970 FILLER_13_98
*971 FILLER_14_106
*972 FILLER_14_11
*973 FILLER_14_115
*974 FILLER_14_135
*975 FILLER_14_139
*976 FILLER_14_141
*977 FILLER_14_147
*978 FILLER_14_164
*979 FILLER_14_173
*980 FILLER_14_180
*981 FILLER_14_187
*982 FILLER_14_19
*983 FILLER_14_195
*984 FILLER_14_197
*985 FILLER_14_203
*986 FILLER_14_215
*987 FILLER_14_223
*988 FILLER_14_227
*989 FILLER_14_247
*990 FILLER_14_251
*991 FILLER_14_253
*992 FILLER_14_265
*993 FILLER_14_27
*994 FILLER_14_277
*995 FILLER_14_289
*996 FILLER_14_297
*997 FILLER_14_3
*998 FILLER_14_45
*999 FILLER_14_65
*1000 FILLER_14_74
*1001 FILLER_14_82
*1002 FILLER_14_90
*1003 FILLER_14_99
*1004 FILLER_15_102
*1005 FILLER_15_110
*1006 FILLER_15_113
*1007 FILLER_15_124
*1008 FILLER_15_148
*1009 FILLER_15_15
*1010 FILLER_15_160
*1011 FILLER_15_172
*1012 FILLER_15_178
*1013 FILLER_15_184
*1014 FILLER_15_19
*1015 FILLER_15_193
*1016 FILLER_15_199
*1017 FILLER_15_205
*1018 FILLER_15_212
*1019 FILLER_15_241
*1020 FILLER_15_25
*1021 FILLER_15_253
*1022 FILLER_15_265
*1023 FILLER_15_277
*1024 FILLER_15_281
*1025 FILLER_15_293
*1026 FILLER_15_3
*1027 FILLER_15_31
*1028 FILLER_15_40
*1029 FILLER_15_47
*1030 FILLER_15_55
*1031 FILLER_15_60
*1032 FILLER_15_82
*1033 FILLER_16_116
*1034 FILLER_16_134
*1035 FILLER_16_144
*1036 FILLER_16_151
*1037 FILLER_16_155
*1038 FILLER_16_172
*1039 FILLER_16_19
*1040 FILLER_16_192
*1041 FILLER_16_213
*1042 FILLER_16_233
*1043 FILLER_16_242
*1044 FILLER_16_250
*1045 FILLER_16_253
*1046 FILLER_16_265
*1047 FILLER_16_27
*1048 FILLER_16_277
*1049 FILLER_16_289
*1050 FILLER_16_29
*1051 FILLER_16_297
*1052 FILLER_16_51
*1053 FILLER_16_65
*1054 FILLER_16_72
*1055 FILLER_16_85
*1056 FILLER_16_89
*1057 FILLER_16_96
*1058 FILLER_17_103
*1059 FILLER_17_111
*1060 FILLER_17_113
*1061 FILLER_17_119
*1062 FILLER_17_126
*1063 FILLER_17_13
*1064 FILLER_17_130
*1065 FILLER_17_147
*1066 FILLER_17_156
*1067 FILLER_17_169
*1068 FILLER_17_177
*1069 FILLER_17_181
*1070 FILLER_17_193
*1071 FILLER_17_199
*1072 FILLER_17_203
*1073 FILLER_17_211
*1074 FILLER_17_217
*1075 FILLER_17_223
*1076 FILLER_17_230
*1077 FILLER_17_234
*1078 FILLER_17_238
*1079 FILLER_17_250
*1080 FILLER_17_262
*1081 FILLER_17_274
*1082 FILLER_17_281
*1083 FILLER_17_293
*1084 FILLER_17_3
*1085 FILLER_17_33
*1086 FILLER_17_37
*1087 FILLER_17_41
*1088 FILLER_17_50
*1089 FILLER_17_57
*1090 FILLER_17_65
*1091 FILLER_17_87
*1092 FILLER_17_94
*1093 FILLER_18_10
*1094 FILLER_18_105
*1095 FILLER_18_109
*1096 FILLER_18_126
*1097 FILLER_18_130
*1098 FILLER_18_136
*1099 FILLER_18_144
*1100 FILLER_18_148
*1101 FILLER_18_165
*1102 FILLER_18_173
*1103 FILLER_18_178
*1104 FILLER_18_186
*1105 FILLER_18_191
*1106 FILLER_18_195
*1107 FILLER_18_213
*1108 FILLER_18_222
*1109 FILLER_18_231
*1110 FILLER_18_24
*1111 FILLER_18_243
*1112 FILLER_18_251
*1113 FILLER_18_253
*1114 FILLER_18_265
*1115 FILLER_18_277
*1116 FILLER_18_289
*1117 FILLER_18_29
*1118 FILLER_18_297
*1119 FILLER_18_3
*1120 FILLER_18_33
*1121 FILLER_18_38
*1122 FILLER_18_50
*1123 FILLER_18_58
*1124 FILLER_18_65
*1125 FILLER_18_73
*1126 FILLER_18_80
*1127 FILLER_18_90
*1128 FILLER_18_94
*1129 FILLER_19_107
*1130 FILLER_19_11
*1131 FILLER_19_111
*1132 FILLER_19_113
*1133 FILLER_19_122
*1134 FILLER_19_130
*1135 FILLER_19_134
*1136 FILLER_19_143
*1137 FILLER_19_155
*1138 FILLER_19_162
*1139 FILLER_19_18
*1140 FILLER_19_185
*1141 FILLER_19_205
*1142 FILLER_19_214
*1143 FILLER_19_222
*1144 FILLER_19_225
*1145 FILLER_19_242
*1146 FILLER_19_254
*1147 FILLER_19_266
*1148 FILLER_19_278
*1149 FILLER_19_281
*1150 FILLER_19_293
*1151 FILLER_19_3
*1152 FILLER_19_38
*1153 FILLER_19_50
*1154 FILLER_19_57
*1155 FILLER_19_64
*1156 FILLER_19_72
*1157 FILLER_19_89
*1158 FILLER_19_98
*1159 FILLER_1_105
*1160 FILLER_1_111
*1161 FILLER_1_113
*1162 FILLER_1_135
*1163 FILLER_1_15
*1164 FILLER_1_155
*1165 FILLER_1_164
*1166 FILLER_1_185
*1167 FILLER_1_205
*1168 FILLER_1_213
*1169 FILLER_1_220
*1170 FILLER_1_241
*1171 FILLER_1_250
*1172 FILLER_1_257
*1173 FILLER_1_269
*1174 FILLER_1_27
*1175 FILLER_1_277
*1176 FILLER_1_281
*1177 FILLER_1_293
*1178 FILLER_1_3
*1179 FILLER_1_47
*1180 FILLER_1_55
*1181 FILLER_1_60
*1182 FILLER_1_80
*1183 FILLER_1_88
*1184 FILLER_20_107
*1185 FILLER_20_111
*1186 FILLER_20_128
*1187 FILLER_20_146
*1188 FILLER_20_153
*1189 FILLER_20_16
*1190 FILLER_20_173
*1191 FILLER_20_186
*1192 FILLER_20_194
*1193 FILLER_20_202
*1194 FILLER_20_222
*1195 FILLER_20_229
*1196 FILLER_20_236
*1197 FILLER_20_24
*1198 FILLER_20_248
*1199 FILLER_20_253
*1200 FILLER_20_265
*1201 FILLER_20_277
*1202 FILLER_20_289
*1203 FILLER_20_297
*1204 FILLER_20_3
*1205 FILLER_20_36
*1206 FILLER_20_47
*1207 FILLER_20_55
*1208 FILLER_20_73
*1209 FILLER_20_80
*1210 FILLER_20_85
*1211 FILLER_20_9
*1212 FILLER_21_104
*1213 FILLER_21_113
*1214 FILLER_21_117
*1215 FILLER_21_123
*1216 FILLER_21_14
*1217 FILLER_21_143
*1218 FILLER_21_163
*1219 FILLER_21_167
*1220 FILLER_21_172
*1221 FILLER_21_180
*1222 FILLER_21_20
*1223 FILLER_21_201
*1224 FILLER_21_209
*1225 FILLER_21_215
*1226 FILLER_21_223
*1227 FILLER_21_225
*1228 FILLER_21_233
*1229 FILLER_21_24
*1230 FILLER_21_245
*1231 FILLER_21_257
*1232 FILLER_21_269
*1233 FILLER_21_277
*1234 FILLER_21_281
*1235 FILLER_21_293
*1236 FILLER_21_3
*1237 FILLER_21_34
*1238 FILLER_21_42
*1239 FILLER_21_49
*1240 FILLER_21_55
*1241 FILLER_21_57
*1242 FILLER_21_7
*1243 FILLER_21_81
*1244 FILLER_21_90
*1245 FILLER_21_97
*1246 FILLER_22_107
*1247 FILLER_22_115
*1248 FILLER_22_122
*1249 FILLER_22_129
*1250 FILLER_22_136
*1251 FILLER_22_144
*1252 FILLER_22_152
*1253 FILLER_22_158
*1254 FILLER_22_166
*1255 FILLER_22_184
*1256 FILLER_22_19
*1257 FILLER_22_191
*1258 FILLER_22_195
*1259 FILLER_22_213
*1260 FILLER_22_220
*1261 FILLER_22_240
*1262 FILLER_22_253
*1263 FILLER_22_265
*1264 FILLER_22_27
*1265 FILLER_22_277
*1266 FILLER_22_289
*1267 FILLER_22_297
*1268 FILLER_22_38
*1269 FILLER_22_42
*1270 FILLER_22_48
*1271 FILLER_22_56
*1272 FILLER_22_63
*1273 FILLER_22_70
*1274 FILLER_22_76
*1275 FILLER_22_80
*1276 FILLER_22_85
*1277 FILLER_23_108
*1278 FILLER_23_129
*1279 FILLER_23_142
*1280 FILLER_23_15
*1281 FILLER_23_153
*1282 FILLER_23_165
*1283 FILLER_23_169
*1284 FILLER_23_178
*1285 FILLER_23_182
*1286 FILLER_23_199
*1287 FILLER_23_207
*1288 FILLER_23_212
*1289 FILLER_23_219
*1290 FILLER_23_223
*1291 FILLER_23_230
*1292 FILLER_23_237
*1293 FILLER_23_24
*1294 FILLER_23_249
*1295 FILLER_23_261
*1296 FILLER_23_273
*1297 FILLER_23_279
*1298 FILLER_23_281
*1299 FILLER_23_293
*1300 FILLER_23_3
*1301 FILLER_23_34
*1302 FILLER_23_42
*1303 FILLER_23_47
*1304 FILLER_23_55
*1305 FILLER_23_57
*1306 FILLER_23_77
*1307 FILLER_23_86
*1308 FILLER_24_101
*1309 FILLER_24_110
*1310 FILLER_24_118
*1311 FILLER_24_136
*1312 FILLER_24_14
*1313 FILLER_24_157
*1314 FILLER_24_177
*1315 FILLER_24_184
*1316 FILLER_24_191
*1317 FILLER_24_195
*1318 FILLER_24_202
*1319 FILLER_24_21
*1320 FILLER_24_226
*1321 FILLER_24_238
*1322 FILLER_24_250
*1323 FILLER_24_253
*1324 FILLER_24_265
*1325 FILLER_24_27
*1326 FILLER_24_277
*1327 FILLER_24_289
*1328 FILLER_24_297
*1329 FILLER_24_3
*1330 FILLER_24_38
*1331 FILLER_24_42
*1332 FILLER_24_59
*1333 FILLER_24_66
*1334 FILLER_24_74
*1335 FILLER_24_80
*1336 FILLER_24_9
*1337 FILLER_25_103
*1338 FILLER_25_111
*1339 FILLER_25_113
*1340 FILLER_25_117
*1341 FILLER_25_121
*1342 FILLER_25_14
*1343 FILLER_25_145
*1344 FILLER_25_151
*1345 FILLER_25_157
*1346 FILLER_25_165
*1347 FILLER_25_172
*1348 FILLER_25_179
*1349 FILLER_25_183
*1350 FILLER_25_200
*1351 FILLER_25_207
*1352 FILLER_25_219
*1353 FILLER_25_22
*1354 FILLER_25_223
*1355 FILLER_25_225
*1356 FILLER_25_245
*1357 FILLER_25_257
*1358 FILLER_25_269
*1359 FILLER_25_277
*1360 FILLER_25_281
*1361 FILLER_25_293
*1362 FILLER_25_3
*1363 FILLER_25_30
*1364 FILLER_25_37
*1365 FILLER_25_41
*1366 FILLER_25_46
*1367 FILLER_25_54
*1368 FILLER_25_57
*1369 FILLER_25_63
*1370 FILLER_25_7
*1371 FILLER_25_75
*1372 FILLER_26_109
*1373 FILLER_26_129
*1374 FILLER_26_136
*1375 FILLER_26_141
*1376 FILLER_26_15
*1377 FILLER_26_163
*1378 FILLER_26_180
*1379 FILLER_26_186
*1380 FILLER_26_192
*1381 FILLER_26_197
*1382 FILLER_26_214
*1383 FILLER_26_223
*1384 FILLER_26_232
*1385 FILLER_26_24
*1386 FILLER_26_241
*1387 FILLER_26_248
*1388 FILLER_26_253
*1389 FILLER_26_265
*1390 FILLER_26_277
*1391 FILLER_26_289
*1392 FILLER_26_297
*1393 FILLER_26_3
*1394 FILLER_26_35
*1395 FILLER_26_42
*1396 FILLER_26_50
*1397 FILLER_26_59
*1398 FILLER_26_79
*1399 FILLER_26_83
*1400 FILLER_26_88
*1401 FILLER_26_92
*1402 FILLER_27_108
*1403 FILLER_27_116
*1404 FILLER_27_125
*1405 FILLER_27_145
*1406 FILLER_27_154
*1407 FILLER_27_161
*1408 FILLER_27_167
*1409 FILLER_27_185
*1410 FILLER_27_189
*1411 FILLER_27_19
*1412 FILLER_27_193
*1413 FILLER_27_200
*1414 FILLER_27_204
*1415 FILLER_27_208
*1416 FILLER_27_216
*1417 FILLER_27_220
*1418 FILLER_27_225
*1419 FILLER_27_247
*1420 FILLER_27_259
*1421 FILLER_27_271
*1422 FILLER_27_279
*1423 FILLER_27_281
*1424 FILLER_27_293
*1425 FILLER_27_33
*1426 FILLER_27_42
*1427 FILLER_27_51
*1428 FILLER_27_55
*1429 FILLER_27_57
*1430 FILLER_27_64
*1431 FILLER_27_84
*1432 FILLER_28_100
*1433 FILLER_28_109
*1434 FILLER_28_11
*1435 FILLER_28_118
*1436 FILLER_28_127
*1437 FILLER_28_131
*1438 FILLER_28_135
*1439 FILLER_28_139
*1440 FILLER_28_146
*1441 FILLER_28_16
*1442 FILLER_28_166
*1443 FILLER_28_174
*1444 FILLER_28_188
*1445 FILLER_28_197
*1446 FILLER_28_217
*1447 FILLER_28_23
*1448 FILLER_28_237
*1449 FILLER_28_246
*1450 FILLER_28_253
*1451 FILLER_28_265
*1452 FILLER_28_27
*1453 FILLER_28_277
*1454 FILLER_28_289
*1455 FILLER_28_297
*1456 FILLER_28_3
*1457 FILLER_28_34
*1458 FILLER_28_42
*1459 FILLER_28_46
*1460 FILLER_28_53
*1461 FILLER_28_67
*1462 FILLER_28_75
*1463 FILLER_28_80
*1464 FILLER_28_85
*1465 FILLER_28_91
*1466 FILLER_29_101
*1467 FILLER_29_108
*1468 FILLER_29_129
*1469 FILLER_29_137
*1470 FILLER_29_144
*1471 FILLER_29_15
*1472 FILLER_29_151
*1473 FILLER_29_158
*1474 FILLER_29_166
*1475 FILLER_29_172
*1476 FILLER_29_184
*1477 FILLER_29_201
*1478 FILLER_29_207
*1479 FILLER_29_211
*1480 FILLER_29_220
*1481 FILLER_29_225
*1482 FILLER_29_238
*1483 FILLER_29_242
*1484 FILLER_29_246
*1485 FILLER_29_253
*1486 FILLER_29_265
*1487 FILLER_29_277
*1488 FILLER_29_281
*1489 FILLER_29_29
*1490 FILLER_29_293
*1491 FILLER_29_3
*1492 FILLER_29_38
*1493 FILLER_29_49
*1494 FILLER_29_55
*1495 FILLER_29_62
*1496 FILLER_29_69
*1497 FILLER_29_7
*1498 FILLER_29_81
*1499 FILLER_2_10
*1500 FILLER_2_118
*1501 FILLER_2_129
*1502 FILLER_2_137
*1503 FILLER_2_141
*1504 FILLER_2_152