*SPEF "ieee 1481-1999"
*DESIGN "asic_multiplier_wrapper"
*DATE "11:11:11 Fri 11 11, 1111"
*VENDOR "OpenRCX"
*PROGRAM "Parallel Extraction"
*VERSION "1.0"
*DESIGN_FLOW "NAME_SCOPE LOCAL" "PIN_CAP NONE"
*DIVIDER /
*DELIMITER :
*BUS_DELIMITER []
*T_UNIT 1 NS
*C_UNIT 1 PF
*R_UNIT 1 OHM
*L_UNIT 1 HENRY

*NAME_MAP
*1 io_in[0]
*2 io_in[1]
*3 io_in[2]
*4 io_in[3]
*5 io_in[4]
*6 io_in[5]
*7 io_in[6]
*8 io_in[7]
*9 io_out[0]
*10 io_out[1]
*11 io_out[2]
*12 io_out[3]
*13 io_out[4]
*14 io_out[5]
*15 io_out[6]
*16 io_out[7]
*19 _000_
*20 _001_
*21 _002_
*22 _003_
*23 _004_
*24 _005_
*25 _006_
*26 _007_
*27 _008_
*28 _009_
*29 _010_
*30 _011_
*31 _012_
*32 _013_
*33 _014_
*34 _015_
*35 _016_
*36 _017_
*37 _018_
*38 _019_
*39 _020_
*40 _021_
*41 _022_
*42 _023_
*43 _024_
*44 _025_
*45 _026_
*46 _027_
*47 _028_
*48 _029_
*49 _030_
*50 _031_
*51 _032_
*52 _033_
*53 _034_
*54 _035_
*55 _036_
*56 _037_
*57 _038_
*58 _039_
*59 _040_
*60 _041_
*61 _042_
*62 _043_
*63 _044_
*64 _045_
*65 _046_
*66 _047_
*67 _048_
*68 _049_
*69 _050_
*70 _051_
*71 _052_
*72 _053_
*73 _054_
*74 _055_
*75 _056_
*76 _057_
*77 _058_
*78 _059_
*79 _060_
*80 _061_
*81 _062_
*82 _063_
*83 _064_
*84 _065_
*85 _066_
*86 _067_
*87 _068_
*88 _069_
*89 _070_
*90 _071_
*91 _072_
*92 _073_
*93 _074_
*94 _075_
*95 _076_
*96 _077_
*97 _078_
*98 _079_
*99 _080_
*100 _081_
*101 _082_
*102 _083_
*103 _084_
*104 _085_
*105 _086_
*106 _087_
*107 _088_
*108 _089_
*109 _090_
*110 _091_
*111 _092_
*112 _093_
*113 _094_
*114 _095_
*115 _096_
*116 _097_
*117 _098_
*118 _099_
*119 _100_
*120 _101_
*121 _102_
*122 _103_
*123 _104_
*124 _105_
*125 _106_
*126 _107_
*127 _108_
*128 _109_
*129 _110_
*130 _111_
*131 _112_
*132 _113_
*133 _114_
*134 _115_
*135 _116_
*136 _117_
*137 _118_
*138 _119_
*139 _120_
*140 _121_
*141 _122_
*142 _123_
*143 _124_
*144 _125_
*145 _126_
*146 _127_
*147 _128_
*148 _129_
*149 _130_
*150 _131_
*151 _132_
*152 _133_
*153 _134_
*154 _135_
*155 asic_multiplier_top\.multiplier_8bits\.i_a\[0\]
*156 asic_multiplier_top\.multiplier_8bits\.i_a\[1\]
*157 asic_multiplier_top\.multiplier_8bits\.i_a\[2\]
*158 asic_multiplier_top\.multiplier_8bits\.i_b\[0\]
*159 asic_multiplier_top\.multiplier_8bits\.i_b\[1\]
*160 asic_multiplier_top\.multiplier_8bits\.i_b\[2\]
*161 asic_multiplier_top\.o_lsb_digit
*162 asic_multiplier_top\.r_counter\[0\]
*163 asic_multiplier_top\.r_counter\[10\]
*164 asic_multiplier_top\.r_counter\[1\]
*165 asic_multiplier_top\.r_counter\[2\]
*166 asic_multiplier_top\.r_counter\[3\]
*167 asic_multiplier_top\.r_counter\[4\]
*168 asic_multiplier_top\.r_counter\[5\]
*169 asic_multiplier_top\.r_counter\[6\]
*170 asic_multiplier_top\.r_counter\[7\]
*171 asic_multiplier_top\.r_counter\[8\]
*172 asic_multiplier_top\.r_counter\[9\]
*173 asic_multiplier_top\.r_digit\[0\]
*174 asic_multiplier_top\.r_digit\[1\]
*175 asic_multiplier_top\.r_digit\[2\]
*176 asic_multiplier_top\.r_digit\[3\]
*177 asic_multiplier_top\.r_fact_a_in\[0\]
*178 asic_multiplier_top\.r_fact_a_in\[1\]
*179 asic_multiplier_top\.r_fact_a_in\[2\]
*180 asic_multiplier_top\.r_fact_b_in\[0\]
*181 asic_multiplier_top\.r_fact_b_in\[1\]
*182 asic_multiplier_top\.r_fact_b_in\[2\]
*183 asic_multiplier_top\.r_lsb_digit
*184 clknet_0_io_in[0]
*185 clknet_2_0__leaf_io_in[0]
*186 clknet_2_1__leaf_io_in[0]
*187 clknet_2_2__leaf_io_in[0]
*188 clknet_2_3__leaf_io_in[0]
*189 net1
*190 net2
*191 net3
*192 net4
*193 net5
*194 net6
*195 net7
*196 FILLER_0_109
*197 FILLER_0_113
*198 FILLER_0_125
*199 FILLER_0_137
*200 FILLER_0_141
*201 FILLER_0_153
*202 FILLER_0_165
*203 FILLER_0_169
*204 FILLER_0_181
*205 FILLER_0_193
*206 FILLER_0_197
*207 FILLER_0_209
*208 FILLER_0_221
*209 FILLER_0_225
*210 FILLER_0_237
*211 FILLER_0_24
*212 FILLER_0_249
*213 FILLER_0_253
*214 FILLER_0_265
*215 FILLER_0_277
*216 FILLER_0_281
*217 FILLER_0_29
*218 FILLER_0_293
*219 FILLER_0_3
*220 FILLER_0_35
*221 FILLER_0_52
*222 FILLER_0_7
*223 FILLER_0_73
*224 FILLER_0_81
*225 FILLER_0_85
*226 FILLER_0_97
*227 FILLER_10_103
*228 FILLER_10_116
*229 FILLER_10_128
*230 FILLER_10_141
*231 FILLER_10_153
*232 FILLER_10_165
*233 FILLER_10_177
*234 FILLER_10_189
*235 FILLER_10_19
*236 FILLER_10_195
*237 FILLER_10_197
*238 FILLER_10_209
*239 FILLER_10_221
*240 FILLER_10_233
*241 FILLER_10_245
*242 FILLER_10_251
*243 FILLER_10_253
*244 FILLER_10_265
*245 FILLER_10_27
*246 FILLER_10_277
*247 FILLER_10_289
*248 FILLER_10_297
*249 FILLER_10_45
*250 FILLER_10_57
*251 FILLER_10_69
*252 FILLER_10_77
*253 FILLER_10_83
*254 FILLER_10_90
*255 FILLER_10_98
*256 FILLER_11_108
*257 FILLER_11_113
*258 FILLER_11_125
*259 FILLER_11_137
*260 FILLER_11_149
*261 FILLER_11_161
*262 FILLER_11_167
*263 FILLER_11_169
*264 FILLER_11_181
*265 FILLER_11_193
*266 FILLER_11_205
*267 FILLER_11_217
*268 FILLER_11_22
*269 FILLER_11_223
*270 FILLER_11_225
*271 FILLER_11_237
*272 FILLER_11_249
*273 FILLER_11_261
*274 FILLER_11_273
*275 FILLER_11_279
*276 FILLER_11_281
*277 FILLER_11_293
*278 FILLER_11_3
*279 FILLER_11_34
*280 FILLER_11_52
*281 FILLER_11_57
*282 FILLER_11_68
*283 FILLER_11_89
*284 FILLER_11_96
*285 FILLER_12_115
*286 FILLER_12_127
*287 FILLER_12_13
*288 FILLER_12_139
*289 FILLER_12_141
*290 FILLER_12_153
*291 FILLER_12_165
*292 FILLER_12_177
*293 FILLER_12_189
*294 FILLER_12_195
*295 FILLER_12_197
*296 FILLER_12_209
*297 FILLER_12_221
*298 FILLER_12_233
*299 FILLER_12_245
*300 FILLER_12_25
*301 FILLER_12_251
*302 FILLER_12_253
*303 FILLER_12_265
*304 FILLER_12_277
*305 FILLER_12_289
*306 FILLER_12_29
*307 FILLER_12_297
*308 FILLER_12_41
*309 FILLER_12_53
*310 FILLER_12_6
*311 FILLER_12_65
*312 FILLER_12_80
*313 FILLER_12_85
*314 FILLER_12_89
*315 FILLER_12_98
*316 FILLER_13_108
*317 FILLER_13_113
*318 FILLER_13_121
*319 FILLER_13_133
*320 FILLER_13_145
*321 FILLER_13_157
*322 FILLER_13_165
*323 FILLER_13_169
*324 FILLER_13_181
*325 FILLER_13_193
*326 FILLER_13_205
*327 FILLER_13_217
*328 FILLER_13_223
*329 FILLER_13_225
*330 FILLER_13_237
*331 FILLER_13_249
*332 FILLER_13_26
*333 FILLER_13_261
*334 FILLER_13_273
*335 FILLER_13_279
*336 FILLER_13_281
*337 FILLER_13_293
*338 FILLER_13_48
*339 FILLER_13_57
*340 FILLER_13_6
*341 FILLER_13_61
*342 FILLER_13_66
*343 FILLER_13_80
*344 FILLER_13_88
*345 FILLER_13_97
*346 FILLER_14_105
*347 FILLER_14_117
*348 FILLER_14_129
*349 FILLER_14_137
*350 FILLER_14_141
*351 FILLER_14_153
*352 FILLER_14_165
*353 FILLER_14_177
*354 FILLER_14_189
*355 FILLER_14_195
*356 FILLER_14_197
*357 FILLER_14_209
*358 FILLER_14_221
*359 FILLER_14_233
*360 FILLER_14_24
*361 FILLER_14_245
*362 FILLER_14_251
*363 FILLER_14_253
*364 FILLER_14_265
*365 FILLER_14_277
*366 FILLER_14_289
*367 FILLER_14_29
*368 FILLER_14_297
*369 FILLER_14_3
*370 FILLER_14_49
*371 FILLER_14_57
*372 FILLER_14_66
*373 FILLER_14_7
*374 FILLER_14_80
*375 FILLER_14_91
*376 FILLER_15_100
*377 FILLER_15_121
*378 FILLER_15_130
*379 FILLER_15_142
*380 FILLER_15_154
*381 FILLER_15_166
*382 FILLER_15_169
*383 FILLER_15_181
*384 FILLER_15_19
*385 FILLER_15_193
*386 FILLER_15_205
*387 FILLER_15_217
*388 FILLER_15_223
*389 FILLER_15_225
*390 FILLER_15_237
*391 FILLER_15_249
*392 FILLER_15_261
*393 FILLER_15_273
*394 FILLER_15_279
*395 FILLER_15_281
*396 FILLER_15_293
*397 FILLER_15_39
*398 FILLER_15_47
*399 FILLER_15_55
*400 FILLER_15_57
*401 FILLER_15_72
*402 FILLER_15_86
*403 FILLER_15_93
*404 FILLER_16_104
*405 FILLER_16_116
*406 FILLER_16_128
*407 FILLER_16_141
*408 FILLER_16_153
*409 FILLER_16_165
*410 FILLER_16_177
*411 FILLER_16_18
*412 FILLER_16_189
*413 FILLER_16_195
*414 FILLER_16_197
*415 FILLER_16_209
*416 FILLER_16_221
*417 FILLER_16_233
*418 FILLER_16_245
*419 FILLER_16_251
*420 FILLER_16_253
*421 FILLER_16_26
*422 FILLER_16_265
*423 FILLER_16_277
*424 FILLER_16_289
*425 FILLER_16_297
*426 FILLER_16_3
*427 FILLER_16_38
*428 FILLER_16_46
*429 FILLER_16_52
*430 FILLER_16_59
*431 FILLER_16_68
*432 FILLER_16_75
*433 FILLER_16_83
*434 FILLER_16_94
*435 FILLER_17_105
*436 FILLER_17_111
*437 FILLER_17_113
*438 FILLER_17_12
*439 FILLER_17_125
*440 FILLER_17_137
*441 FILLER_17_149
*442 FILLER_17_16
*443 FILLER_17_161
*444 FILLER_17_167
*445 FILLER_17_169
*446 FILLER_17_181
*447 FILLER_17_193
*448 FILLER_17_205
*449 FILLER_17_217
*450 FILLER_17_223
*451 FILLER_17_225
*452 FILLER_17_237
*453 FILLER_17_249
*454 FILLER_17_26
*455 FILLER_17_261
*456 FILLER_17_273
*457 FILLER_17_279
*458 FILLER_17_281
*459 FILLER_17_293
*460 FILLER_17_34
*461 FILLER_17_43
*462 FILLER_17_47
*463 FILLER_17_52
*464 FILLER_17_6
*465 FILLER_17_67
*466 FILLER_17_71
*467 FILLER_17_80
*468 FILLER_17_92
*469 FILLER_18_104
*470 FILLER_18_11
*471 FILLER_18_116
*472 FILLER_18_126
*473 FILLER_18_138
*474 FILLER_18_141
*475 FILLER_18_153
*476 FILLER_18_165
*477 FILLER_18_177
*478 FILLER_18_189
*479 FILLER_18_195
*480 FILLER_18_197
*481 FILLER_18_209
*482 FILLER_18_221
*483 FILLER_18_233
*484 FILLER_18_24
*485 FILLER_18_245
*486 FILLER_18_251
*487 FILLER_18_253
*488 FILLER_18_265
*489 FILLER_18_277
*490 FILLER_18_289
*491 FILLER_18_29
*492 FILLER_18_297
*493 FILLER_18_3
*494 FILLER_18_33
*495 FILLER_18_41
*496 FILLER_18_49
*497 FILLER_18_55
*498 FILLER_18_60
*499 FILLER_18_7
*500 FILLER_18_71
*501 FILLER_18_78
*502 FILLER_18_85
*503 FILLER_18_92
*504 FILLER_19_100
*505 FILLER_19_113
*506 FILLER_19_125
*507 FILLER_19_137
*508 FILLER_19_149
*509 FILLER_19_161
*510 FILLER_19_167
*511 FILLER_19_169
*512 FILLER_19_181
*513 FILLER_19_193
*514 FILLER_19_20
*515 FILLER_19_205
*516 FILLER_19_217
*517 FILLER_19_223
*518 FILLER_19_225
*519 FILLER_19_237
*520 FILLER_19_249
*521 FILLER_19_26
*522 FILLER_19_261
*523 FILLER_19_273
*524 FILLER_19_279
*525 FILLER_19_281
*526 FILLER_19_293
*527 FILLER_19_3
*528 FILLER_19_36
*529 FILLER_19_44
*530 FILLER_19_52
*531 FILLER_19_60
*532 FILLER_19_66
*533 FILLER_19_7
*534 FILLER_19_76
*535 FILLER_19_88
*536 FILLER_1_106
*537 FILLER_1_113
*538 FILLER_1_128
*539 FILLER_1_140
*540 FILLER_1_15
*541 FILLER_1_152
*542 FILLER_1_164
*543 FILLER_1_169
*544 FILLER_1_181
*545 FILLER_1_193
*546 FILLER_1_205
*547 FILLER_1_217
*548 FILLER_1_223
*549 FILLER_1_225
*550 FILLER_1_237
*551 FILLER_1_249
*552 FILLER_1_261
*553 FILLER_1_273
*554 FILLER_1_279
*555 FILLER_1_281
*556 FILLER_1_293
*557 FILLER_1_3
*558 FILLER_1_36
*559 FILLER_1_48
*560 FILLER_1_74
*561 FILLER_1_94
*562 FILLER_20_103
*563 FILLER_20_115
*564 FILLER_20_127
*565 FILLER_20_139
*566 FILLER_20_141
*567 FILLER_20_15
*568 FILLER_20_153
*569 FILLER_20_165
*570 FILLER_20_177
*571 FILLER_20_189
*572 FILLER_20_195
*573 FILLER_20_197
*574 FILLER_20_209
*575 FILLER_20_221
*576 FILLER_20_23
*577 FILLER_20_233
*578 FILLER_20_245
*579 FILLER_20_251
*580 FILLER_20_253
*581 FILLER_20_265
*582 FILLER_20_27
*583 FILLER_20_277
*584 FILLER_20_289
*585 FILLER_20_29
*586 FILLER_20_297
*587 FILLER_20_3
*588 FILLER_20_33
*589 FILLER_20_44
*590 FILLER_20_61
*591 FILLER_20_73
*592 FILLER_20_8
*593 FILLER_20_81
*594 FILLER_20_91
*595 FILLER_21_10
*596 FILLER_21_100
*597 FILLER_21_113
*598 FILLER_21_125
*599 FILLER_21_137
*600 FILLER_21_14
*601 FILLER_21_149
*602 FILLER_21_161
*603 FILLER_21_167
*604 FILLER_21_169
*605 FILLER_21_181
*606 FILLER_21_193
*607 FILLER_21_205
*608 FILLER_21_217
*609 FILLER_21_223
*610 FILLER_21_225
*611 FILLER_21_237
*612 FILLER_21_249
*613 FILLER_21_261
*614 FILLER_21_273
*615 FILLER_21_279
*616 FILLER_21_281
*617 FILLER_21_293
*618 FILLER_21_31
*619 FILLER_21_39
*620 FILLER_21_48
*621 FILLER_21_6
*622 FILLER_21_60
*623 FILLER_21_64
*624 FILLER_21_72
*625 FILLER_21_80
*626 FILLER_21_88
*627 FILLER_22_105
*628 FILLER_22_117
*629 FILLER_22_12
*630 FILLER_22_129
*631 FILLER_22_137
*632 FILLER_22_141
*633 FILLER_22_153
*634 FILLER_22_165
*635 FILLER_22_177
*636 FILLER_22_189
*637 FILLER_22_195
*638 FILLER_22_197
*639 FILLER_22_209
*640 FILLER_22_221
*641 FILLER_22_23
*642 FILLER_22_233
*643 FILLER_22_245
*644 FILLER_22_251
*645 FILLER_22_253
*646 FILLER_22_265
*647 FILLER_22_27
*648 FILLER_22_277
*649 FILLER_22_289
*650 FILLER_22_297
*651 FILLER_22_36
*652 FILLER_22_47
*653 FILLER_22_56
*654 FILLER_22_62
*655 FILLER_22_70
*656 FILLER_22_80
*657 FILLER_22_85
*658 FILLER_22_93
*659 FILLER_23_110
*660 FILLER_23_113
*661 FILLER_23_125
*662 FILLER_23_13
*663 FILLER_23_137
*664 FILLER_23_149
*665 FILLER_23_161
*666 FILLER_23_167
*667 FILLER_23_169
*668 FILLER_23_181
*669 FILLER_23_193
*670 FILLER_23_205
*671 FILLER_23_217
*672 FILLER_23_223
*673 FILLER_23_225
*674 FILLER_23_237
*675 FILLER_23_24
*676 FILLER_23_249
*677 FILLER_23_261
*678 FILLER_23_273
*679 FILLER_23_279
*680 FILLER_23_281
*681 FILLER_23_293
*682 FILLER_23_3
*683 FILLER_23_38
*684 FILLER_23_50
*685 FILLER_23_57
*686 FILLER_23_66
*687 FILLER_23_78
*688 FILLER_23_86
*689 FILLER_23_98
*690 FILLER_24_109
*691 FILLER_24_121
*692 FILLER_24_133
*693 FILLER_24_139
*694 FILLER_24_141
*695 FILLER_24_15
*696 FILLER_24_153
*697 FILLER_24_165
*698 FILLER_24_177
*699 FILLER_24_189
*700 FILLER_24_195
*701 FILLER_24_197
*702 FILLER_24_209
*703 FILLER_24_221
*704 FILLER_24_233
*705 FILLER_24_24
*706 FILLER_24_245
*707 FILLER_24_251
*708 FILLER_24_253
*709 FILLER_24_265
*710 FILLER_24_277
*711 FILLER_24_289
*712 FILLER_24_297
*713 FILLER_24_3
*714 FILLER_24_36
*715 FILLER_24_48
*716 FILLER_24_63
*717 FILLER_24_75
*718 FILLER_24_83
*719 FILLER_24_85
*720 FILLER_24_97
*721 FILLER_25_106
*722 FILLER_25_11
*723 FILLER_25_113
*724 FILLER_25_125
*725 FILLER_25_137
*726 FILLER_25_149
*727 FILLER_25_161
*728 FILLER_25_167
*729 FILLER_25_169
*730 FILLER_25_181
*731 FILLER_25_193
*732 FILLER_25_205
*733 FILLER_25_217
*734 FILLER_25_22
*735 FILLER_25_223
*736 FILLER_25_225
*737 FILLER_25_237
*738 FILLER_25_249
*739 FILLER_25_261
*740 FILLER_25_273
*741 FILLER_25_279
*742 FILLER_25_281
*743 FILLER_25_293
*744 FILLER_25_3
*745 FILLER_25_33
*746 FILLER_25_41
*747 FILLER_25_49
*748 FILLER_25_55
*749 FILLER_25_63
*750 FILLER_25_7
*751 FILLER_25_71
*752 FILLER_25_82
*753 FILLER_25_94
*754 FILLER_26_10
*755 FILLER_26_109
*756 FILLER_26_121
*757 FILLER_26_133
*758 FILLER_26_139
*759 FILLER_26_141
*760 FILLER_26_153
*761 FILLER_26_16
*762 FILLER_26_165
*763 FILLER_26_177
*764 FILLER_26_189
*765 FILLER_26_195
*766 FILLER_26_197
*767 FILLER_26_20
*768 FILLER_26_209
*769 FILLER_26_221
*770 FILLER_26_233
*771 FILLER_26_24
*772 FILLER_26_245
*773 FILLER_26_251
*774 FILLER_26_253
*775 FILLER_26_265
*776 FILLER_26_277
*777 FILLER_26_289
*778 FILLER_26_297
*779 FILLER_26_36
*780 FILLER_26_48
*781 FILLER_26_6
*782 FILLER_26_60
*783 FILLER_26_71
*784 FILLER_26_83
*785 FILLER_26_85
*786 FILLER_26_97
*787 FILLER_27_104
*788 FILLER_27_113
*789 FILLER_27_125
*790 FILLER_27_137
*791 FILLER_27_149
*792 FILLER_27_161
*793 FILLER_27_167
*794 FILLER_27_169
*795 FILLER_27_17
*796 FILLER_27_181
*797 FILLER_27_193
*798 FILLER_27_205
*799 FILLER_27_217
*800 FILLER_27_223
*801 FILLER_27_225
*802 FILLER_27_237
*803 FILLER_27_249
*804 FILLER_27_261
*805 FILLER_27_273
*806 FILLER_27_279
*807 FILLER_27_281
*808 FILLER_27_29
*809 FILLER_27_293
*810 FILLER_27_41
*811 FILLER_27_53
*812 FILLER_27_57
*813 FILLER_27_68
*814 FILLER_27_80
*815 FILLER_27_92
*816 FILLER_28_109
*817 FILLER_28_12
*818 FILLER_28_121
*819 FILLER_28_133
*820 FILLER_28_139
*821 FILLER_28_141
*822 FILLER_28_153
*823 FILLER_28_165
*824 FILLER_28_177
*825 FILLER_28_189
*826 FILLER_28_195
*827 FILLER_28_197
*828 FILLER_28_209
*829 FILLER_28_221
*830 FILLER_28_233
*831 FILLER_28_24
*832 FILLER_28_245
*833 FILLER_28_251
*834 FILLER_28_253
*835 FILLER_28_265
*836 FILLER_28_277
*837 FILLER_28_289
*838 FILLER_28_29
*839 FILLER_28_297
*840 FILLER_28_3
*841 FILLER_28_41
*842 FILLER_28_53
*843 FILLER_28_65
*844 FILLER_28_77
*845 FILLER_28_83
*846 FILLER_28_85
*847 FILLER_28_97
*848 FILLER_29_105
*849 FILLER_29_11
*850 FILLER_29_111
*851 FILLER_29_113
*852 FILLER_29_125
*853 FILLER_29_137
*854 FILLER_29_149
*855 FILLER_29_161
*856 FILLER_29_167
*857 FILLER_29_169
*858 FILLER_29_181
*859 FILLER_29_193
*860 FILLER_29_205
*861 FILLER_29_217
*862 FILLER_29_223
*863 FILLER_29_225
*864 FILLER_29_237
*865 FILLER_29_249
*866 FILLER_29_25
*867 FILLER_29_261
*868 FILLER_29_273
*869 FILLER_29_279
*870 FILLER_29_281
*871 FILLER_29_293
*872 FILLER_29_3
*873 FILLER_29_33
*874 FILLER_29_41
*875 FILLER_29_49
*876 FILLER_29_55
*877 FILLER_29_57
*878 FILLER_29_69
*879 FILLER_29_81
*880 FILLER_29_93
*881 FILLER_2_109
*882 FILLER_2_121
*883 FILLER_2_133
*884 FILLER_2_139
*885 FILLER_2_141
*886 FILLER_2_153
*887 FILLER_2_165
*888 FILLER_2_177
*889 FILLER_2_189
*890 FILLER_2_19
*891 FILLER_2_195
*892 FILLER_2_197
*893 FILLER_2_209
*894 FILLER_2_221
*895 FILLER_2_233
*896 FILLER_2_245
*897 FILLER_2_251
*898 FILLER_2_253
*899 FILLER_2_265
*900 FILLER_2_27
*901 FILLER_2_277
*902 FILLER_2_289
*903 FILLER_2_29
*904 FILLER_2_297
*905 FILLER_2_41
*906 FILLER_2_65
*907 FILLER_2_71
*908 FILLER_2_75
*909 FILLER_2_83
*910 FILLER_2_85
*911 FILLER_2_91
*912 FILLER_2_97
*913 FILLER_30_109
*914 FILLER_30_121
*915 FILLER_30_133
*916 FILLER_30_139
*917 FILLER_30_141
*918 FILLER_30_153
*919 FILLER_30_165
*920 FILLER_30_177
*921 FILLER_30_189
*922 FILLER_30_195
*923 FILLER_30_197
*924 FILLER_30_209
*925 FILLER_30_21
*926 FILLER_30_221
*927 FILLER_30_233
*928 FILLER_30_245
*929 FILLER_30_251
*930 FILLER_30_253
*931 FILLER_30_265
*932 FILLER_30_27
*933 FILLER_30_277
*934 FILLER_30_289
*935 FILLER_30_29
*936 FILLER_30_297
*937 FILLER_30_3
*938 FILLER_30_41
*939 FILLER_30_53
*940 FILLER_30_65
*941 FILLER_30_77
*942 FILLER_30_83
*943 FILLER_30_85
*944 FILLER_30_9
*945 FILLER_30_97
*946 FILLER_31_105
*947 FILLER_31_111
*948 FILLER_31_113
*949 FILLER_31_125
*950 FILLER_31_137
*951 FILLER_31_149
*952 FILLER_31_15
*953 FILLER_31_161
*954 FILLER_31_167
*955 FILLER_31_169
*956 FILLER_31_181
*957 FILLER_31_193
*958 FILLER_31_205
*959 FILLER_31_217
*960 FILLER_31_22
*961 FILLER_31_223
*962 FILLER_31_225
*963 FILLER_31_237
*964 FILLER_31_249
*965 FILLER_31_261
*966 FILLER_31_273
*967 FILLER_31_279
*968 FILLER_31_281
*969 FILLER_31_293
*970 FILLER_31_3
*971 FILLER_31_49
*972 FILLER_31_55
*973 FILLER_31_57
*974 FILLER_31_69
*975 FILLER_31_81
*976 FILLER_31_93
*977 FILLER_32_109
*978 FILLER_32_121
*979 FILLER_32_133
*980 FILLER_32_139
*981 FILLER_32_141
*982 FILLER_32_153
*983 FILLER_32_165
*984 FILLER_32_177
*985 FILLER_32_189
*986 FILLER_32_195
*987 FILLER_32_197
*988 FILLER_32_20
*989 FILLER_32_209
*990 FILLER_32_221
*991 FILLER_32_233
*992 FILLER_32_245
*993 FILLER_32_251
*994 FILLER_32_253
*995 FILLER_32_265
*996 FILLER_32_277
*997 FILLER_32_289
*998 FILLER_32_29
*999 FILLER_32_297
*1000 FILLER_32_41
*1001 FILLER_32_53
*1002 FILLER_32_65
*1003 FILLER_32_77
*1004 FILLER_32_83
*1005 FILLER_32_85
*1006 FILLER_32_97
*1007 FILLER_33_105
*1008 FILLER_33_111
*1009 FILLER_33_113
*1010 FILLER_33_125
*1011 FILLER_33_137
*1012 FILLER_33_149
*1013 FILLER_33_16
*1014 FILLER_33_161
*1015 FILLER_33_167
*1016 FILLER_33_169
*1017 FILLER_33_181
*1018 FILLER_33_193
*1019 FILLER_33_205
*1020 FILLER_33_217
*1021 FILLER_33_223
*1022 FILLER_33_225
*1023 FILLER_33_237
*1024 FILLER_33_249
*1025 FILLER_33_261
*1026 FILLER_33_273
*1027 FILLER_33_279
*1028 FILLER_33_28
*1029 FILLER_33_281
*1030 FILLER_33_293
*1031 FILLER_33_3
*1032 FILLER_33_40
*1033 FILLER_33_52
*1034 FILLER_33_57
*1035 FILLER_33_69
*1036 FILLER_33_81
*1037 FILLER_33_93
*1038 FILLER_34_109
*1039 FILLER_34_121
*1040 FILLER_34_133
*1041 FILLER_34_139
*1042 FILLER_34_141
*1043 FILLER_34_15
*1044 FILLER_34_153
*1045 FILLER_34_165
*1046 FILLER_34_177
*1047 FILLER_34_189
*1048 FILLER_34_195
*1049 FILLER_34_197
*1050 FILLER_34_209
*1051 FILLER_34_221
*1052 FILLER_34_233
*1053 FILLER_34_245
*1054 FILLER_34_251
*1055 FILLER_34_253
*1056 FILLER_34_265
*1057 FILLER_34_27
*1058 FILLER_34_277
*1059 FILLER_34_289
*1060 FILLER_34_297
*1061 FILLER_34_3
*1062 FILLER_34_34
*1063 FILLER_34_46
*1064 FILLER_34_58
*1065 FILLER_34_70
*1066 FILLER_34_82
*1067 FILLER_34_85
*1068 FILLER_34_97
*1069 FILLER_35_105
*1070 FILLER_35_111
*1071 FILLER_35_113
*1072 FILLER_35_125
*1073 FILLER_35_137
*1074 FILLER_35_149
*1075 FILLER_35_15
*1076 FILLER_35_161
*1077 FILLER_35_167
*1078 FILLER_35_169
*1079 FILLER_35_181
*1080 FILLER_35_193
*1081 FILLER_35_205
*1082 FILLER_35_217
*1083 FILLER_35_223
*1084 FILLER_35_225
*1085 FILLER_35_237
*1086 FILLER_35_249
*1087 FILLER_35_261
*1088 FILLER_35_27
*1089 FILLER_35_273
*1090 FILLER_35_279
*1091 FILLER_35_281
*1092 FILLER_35_293
*1093 FILLER_35_3
*1094 FILLER_35_35
*1095 FILLER_35_40
*1096 FILLER_35_52
*1097 FILLER_35_57
*1098 FILLER_35_69
*1099 FILLER_35_81
*1100 FILLER_35_93
*1101 FILLER_36_109
*1102 FILLER_36_11
*1103 FILLER_36_121
*1104 FILLER_36_133
*1105 FILLER_36_139
*1106 FILLER_36_141
*1107 FILLER_36_153
*1108 FILLER_36_165
*1109 FILLER_36_177
*1110 FILLER_36_18
*1111 FILLER_36_189
*1112 FILLER_36_195
*1113 FILLER_36_197
*1114 FILLER_36_209
*1115 FILLER_36_221
*1116 FILLER_36_233
*1117 FILLER_36_245
*1118 FILLER_36_251
*1119 FILLER_36_253
*1120 FILLER_36_26
*1121 FILLER_36_265
*1122 FILLER_36_277
*1123 FILLER_36_289
*1124 FILLER_36_29
*1125 FILLER_36_297
*1126 FILLER_36_3
*1127 FILLER_36_41
*1128 FILLER_36_53
*1129 FILLER_36_65
*1130 FILLER_36_77
*1131 FILLER_36_83
*1132 FILLER_36_85
*1133 FILLER_36_97
*1134 FILLER_37_105
*1135 FILLER_37_11
*1136 FILLER_37_111
*1137 FILLER_37_113
*1138 FILLER_37_125
*1139 FILLER_37_137
*1140 FILLER_37_149
*1141 FILLER_37_161
*1142 FILLER_37_167
*1143 FILLER_37_169
*1144 FILLER_37_181
*1145 FILLER_37_193
*1146 FILLER_37_205
*1147 FILLER_37_217
*1148 FILLER_37_223
*1149 FILLER_37_225
*1150 FILLER_37_23
*1151 FILLER_37_237
*1152 FILLER_37_249
*1153 FILLER_37_261
*1154 FILLER_37_273
*1155 FILLER_37_279
*1156 FILLER_37_281
*1157 FILLER_37_293
*1158 FILLER_37_3
*1159 FILLER_37_35
*1160 FILLER_37_47
*1161 FILLER_37_55
*1162 FILLER_37_57
*1163 FILLER_37_69
*1164 FILLER_37_81
*1165 FILLER_37_93
*1166 FILLER_38_109
*1167 FILLER_38_12
*1168 FILLER_38_121
*1169 FILLER_38_133
*1170 FILLER_38_139
*1171 FILLER_38_141
*1172 FILLER_38_153
*1173 FILLER_38_165
*1174 FILLER_38_177
*1175 FILLER_38_189
*1176 FILLER_38_195
*1177 FILLER_38_197
*1178 FILLER_38_209
*1179 FILLER_38_221
*1180 FILLER_38_233
*1181 FILLER_38_24
*1182 FILLER_38_245
*1183 FILLER_38_251
*1184 FILLER_38_253
*1185 FILLER_38_265
*1186 FILLER_38_277
*1187 FILLER_38_289
*1188 FILLER_38_29
*1189 FILLER_38_297
*1190 FILLER_38_3
*1191 FILLER_38_41
*1192 FILLER_38_53
*1193 FILLER_38_65
*1194 FILLER_38_7
*1195 FILLER_38_77
*1196 FILLER_38_83
*1197 FILLER_38_85
*1198 FILLER_38_97
*1199 FILLER_39_105
*1200 FILLER_39_111
*1201 FILLER_39_113
*1202 FILLER_39_125
*1203 FILLER_39_137
*1204 FILLER_39_149
*1205 FILLER_39_161
*1206 FILLER_39_167
*1207 FILLER_39_169
*1208 FILLER_39_18
*1209 FILLER_39_181
*1210 FILLER_39_193
*1211 FILLER_39_205
*1212 FILLER_39_217
*1213 FILLER_39_223
*1214 FILLER_39_225
*1215 FILLER_39_237
*1216 FILLER_39_249
*1217 FILLER_39_261
*1218 FILLER_39_273
*1219 FILLER_39_279
*1220 FILLER_39_281
*1221 FILLER_39_293
*1222 FILLER_39_3
*1223 FILLER_39_30
*1224 FILLER_39_42
*1225 FILLER_39_54
*1226 FILLER_39_57
*1227 FILLER_39_69
*1228 FILLER_39_81
*1229 FILLER_39_93
*1230 FILLER_3_107
*1231 FILLER_3_111
*1232 FILLER_3_113
*1233 FILLER_3_119
*1234 FILLER_3_127
*1235 FILLER_3_139
*1236 FILLER_3_151
*1237 FILLER_3_163
*1238 FILLER_3_167
*1239 FILLER_3_169
*1240 FILLER_3_181
*1241 FILLER_3_193
*1242 FILLER_3_205
*1243 FILLER_3_217
*1244 FILLER_3_223
*1245 FILLER_3_225
*1246 FILLER_3_237
*1247 FILLER_3_249
*1248 FILLER_3_25
*1249 FILLER_3_261
*1250 FILLER_3_273
*1251 FILLER_3_279
*1252 FILLER_3_281
*1253 FILLER_3_293
*1254 FILLER_3_3
*1255 FILLER_3_45
*1256 FILLER_3_53
*1257 FILLER_3_73
*1258 FILLER_3_82
*1259 FILLER_3_88
*1260 FILLER_3_95
*1261 FILLER_40_109
*1262 FILLER_40_121
*1263 FILLER_40_133
*1264 FILLER_40_139
*1265 FILLER_40_141
*1266 FILLER_40_15
*1267 FILLER_40_153
*1268 FILLER_40_165
*1269 FILLER_40_177
*1270 FILLER_40_189
*1271 FILLER_40_195
*1272 FILLER_40_197
*1273 FILLER_40_209
*1274 FILLER_40_221
*1275 FILLER_40_233
*1276 FILLER_40_245
*1277 FILLER_40_251
*1278 FILLER_40_253
*1279 FILLER_40_265
*1280 FILLER_40_27
*1281 FILLER_40_277
*1282 FILLER_40_289
*1283 FILLER_40_29
*1284 FILLER_40_297
*1285 FILLER_40_3
*1286 FILLER_40_41
*1287 FILLER_40_53
*1288 FILLER_40_65
*1289 FILLER_40_77
*1290 FILLER_40_83
*1291 FILLER_40_85
*1292 FILLER_40_97
*1293 FILLER_41_105
*1294 FILLER_41_111
*1295 FILLER_41_113
*1296 FILLER_41_125
*1297 FILLER_41_137
*1298 FILLER_41_149
*1299 FILLER_41_15
*1300 FILLER_41_161
*1301 FILLER_41_167
*1302 FILLER_41_169
*1303 FILLER_41_181
*1304 FILLER_41_193
*1305 FILLER_41_205
*1306 FILLER_41_217
*1307 FILLER_41_223
*1308 FILLER_41_225
*1309 FILLER_41_237
*1310 FILLER_41_249
*1311 FILLER_41_261
*1312 FILLER_41_27
*1313 FILLER_41_273
*1314 FILLER_41_279
*1315 FILLER_41_281
*1316 FILLER_41_293
*1317 FILLER_41_3
*1318 FILLER_41_39
*1319 FILLER_41_51
*1320 FILLER_41_55
*1321 FILLER_41_57
*1322 FILLER_41_69
*1323 FILLER_41_81
*1324 FILLER_41_93
*1325 FILLER_42_109
*1326 FILLER_42_121
*1327 FILLER_42_13
*1328 FILLER_42_133
*1329 FILLER_42_139
*1330 FILLER_42_141
*1331 FILLER_42_153
*1332 FILLER_42_165
*1333 FILLER_42_177
*1334 FILLER_42_189
*1335 FILLER_42_195
*1336 FILLER_42_197
*1337 FILLER_42_20
*1338 FILLER_42_209
*1339 FILLER_42_221
*1340 FILLER_42_233
*1341 FILLER_42_245
*1342 FILLER_42_251
*1343 FILLER_42_253
*1344 FILLER_42_265
*1345 FILLER_42_277
*1346 FILLER_42_289
*1347 FILLER_42_29
*1348 FILLER_42_297
*1349 FILLER_42_3
*1350 FILLER_42_41
*1351 FILLER_42_53
*1352 FILLER_42_65
*1353 FILLER_42_77
*1354 FILLER_42_83
*1355 FILLER_42_85
*1356 FILLER_42_97
*1357 FILLER_43_105
*1358 FILLER_43_111
*1359 FILLER_43_113
*1360 FILLER_43_125
*1361 FILLER_43_137
*1362 FILLER_43_149
*1363 FILLER_43_15
*1364 FILLER_43_161
*1365 FILLER_43_167
*1366 FILLER_43_169
*1367 FILLER_43_181
*1368 FILLER_43_193
*1369 FILLER_43_205
*1370 FILLER_43_217
*1371 FILLER_43_223
*1372 FILLER_43_225
*1373 FILLER_43_237
*1374 FILLER_43_249
*1375 FILLER_43_261
*1376 FILLER_43_27
*1377 FILLER_43_273
*1378 FILLER_43_279
*1379 FILLER_43_281
*1380 FILLER_43_293
*1381 FILLER_43_3
*1382 FILLER_43_39
*1383 FILLER_43_51
*1384 FILLER_43_55
*1385 FILLER_43_57
*1386 FILLER_43_69
*1387 FILLER_43_81
*1388 FILLER_43_93
*1389 FILLER_44_109
*1390 FILLER_44_121
*1391 FILLER_44_133
*1392 FILLER_44_139
*1393 FILLER_44_141
*1394 FILLER_44_15
*1395 FILLER_44_153
*1396 FILLER_44_165
*1397 FILLER_44_177
*1398 FILLER_44_189
*1399 FILLER_44_195
*1400 FILLER_44_197
*1401 FILLER_44_209
*1402 FILLER_44_221
*1403 FILLER_44_233
*1404 FILLER_44_245
*1405 FILLER_44_251
*1406 FILLER_44_253
*1407 FILLER_44_265
*1408 FILLER_44_27
*1409 FILLER_44_277
*1410 FILLER_44_289
*1411 FILLER_44_29
*1412 FILLER_44_297
*1413 FILLER_44_3
*1414 FILLER_44_41
*1415 FILLER_44_53
*1416 FILLER_44_65
*1417 FILLER_44_77
*1418 FILLER_44_83
*1419 FILLER_44_85
*1420 FILLER_44_97
*1421 FILLER_45_105
*1422 FILLER_45_111
*1423 FILLER_45_113
*1424 FILLER_45_125
*1425 FILLER_45_137
*1426 FILLER_45_149
*1427 FILLER_45_15
*1428 FILLER_45_161
*1429 FILLER_45_167
*1430 FILLER_45_169
*1431 FILLER_45_181
*1432 FILLER_45_193
*1433 FILLER_45_205
*1434 FILLER_45_217
*1435 FILLER_45_223
*1436 FILLER_45_225
*1437 FILLER_45_237
*1438 FILLER_45_249
*1439 FILLER_45_261
*1440 FILLER_45_27
*1441 FILLER_45_273
*1442 FILLER_45_279
*1443 FILLER_45_281
*1444 FILLER_45_293
*1445 FILLER_45_3
*1446 FILLER_45_39
*1447 FILLER_45_51
*1448 FILLER_45_55
*1449 FILLER_45_57
*1450 FILLER_45_69
*1451 FILLER_45_81
*1452 FILLER_45_93
*1453 FILLER_46_109
*1454 FILLER_46_121
*1455 FILLER_46_133
*1456 FILLER_46_139
*1457 FILLER_46_141
*1458 FILLER_46_15
*1459 FILLER_46_153
*1460 FILLER_46_165
*1461 FILLER_46_177
*1462 FILLER_46_189
*1463 FILLER_46_195
*1464 FILLER_46_197
*1465 FILLER_46_209
*1466 FILLER_46_221
*1467 FILLER_46_233
*1468 FILLER_46_245
*1469 FILLER_46_251
*1470 FILLER_46_253
*1471 FILLER_46_265
*1472 FILLER_46_27
*1473 FILLER_46_277
*1474 FILLER_46_289
*1475 FILLER_46_29
*1476 FILLER_46_297
*1477 FILLER_46_3
*1478 FILLER_46_41
*1479 FILLER_46_53
*1480 FILLER_46_65
*1481 FILLER_46_77
*1482 FILLER_46_83
*1483 FILLER_46_85
*1484 FILLER_46_97
*1485 FILLER_47_105
*1486 FILLER_47_111
*1487 FILLER_47_113
*1488 FILLER_47_125
*1489 FILLER_47_137
*1490 FILLER_47_149
*1491 FILLER_47_15
*1492 FILLER_47_161
*1493 FILLER_47_167
*1494 FILLER_47_169
*1495 FILLER_47_181
*1496 FILLER_47_193
*1497 FILLER_47_205
*1498 FILLER_47_217
*1499 FILLER_47_223
*1500 FILLER_47_225
*1501 FILLER_47_237
*1502 FILLER_47_249
*1503 FILLER_47_261
*1504 FILLER_47_27
*1505 FILLER_47_273
*1506 FILLER_47_279
*1507 FILLER_47_281
*1508 FILLER_47_293
*1509 FILLER_47_3
*1510 FILLER_47_39
*1511 FILLER_47_51
*1512 FILLER_47_55
*1513 FILLER_47_57
*1514 FILLER_47_69
*1515 FILLER_47_81
*1516 FILLER_47_93
*1517 FILLER_48_109
*1518 FILLER_48_121
*1519 FILLER_48_133
*1520 FILLER_48_139
*1521 FILLER_48_141
*1522 FILLER_48_15
*1523 FILLER_48_153
*1524 FILLER_48_165
*1525 FILLER_48_177
*1526 FILLER_48_189
*1527 FILLER_48_195
*1528 FILLER_48_197
*1529 FILLER_48_209
*1530 FILLER_48_221
*1531 FILLER_48_233
*1532 FILLER_48_245
*1533 FILLER_48_251
*1534 FILLER_48_253
*1535 FILLER_48_265
*1536 FILLER_48_27
*1537 FILLER_48_277
*1538 FILLER_48_289
*1539 FILLER_48_29
*1540 FILLER_48_297
*1541 FILLER_48_3
*1542 FILLER_48_41
*1543 FILLER_48_53
*1544 FILLER_48_65
*1545 FILLER_48_77
*1546 FILLER_48_83
*1547 FILLER_48_85
*1548 FILLER_48_97
*1549 FILLER_49_105
*1550 FILLER_49_111
*1551 FILLER_49_113
*1552 FILLER_49_125
*1553 FILLER_49_137
*1554 FILLER_49_149
*1555 FILLER_49_15
*1556 FILLER_49_161
*1557 FILLER_49_167
*1558 FILLER_49_169
*1559 FILLER_49_181
*1560 FILLER_49_193
*1561 FILLER_49_205
*1562 FILLER_49_217
*1563 FILLER_49_223
*1564 FILLER_49_225
*1565 FILLER_49_237
*1566 FILLER_49_249
*1567 FILLER_49_261
*1568 FILLER_49_27
*1569 FILLER_49_273
*1570 FILLER_49_279
*1571 FILLER_49_281
*1572 FILLER_49_293
*1573 FILLER_49_3
*1574 FILLER_49_39
*1575 FILLER_49_51
*1576 FILLER_49_55
*1577 FILLER_49_57
*1578 FILLER_49_69
*1579 FILLER_49_81
*1580 FILLER_49_93
*1581 FILLER_4_106
*1582 FILLER_4_118
*1583 FILLER_4_130
*1584 FILLER_4_138
*1585 FILLER_4_141
*1586 FILLER_4_153
*1587 FILLER_4_165
*1588 FILLER_4_177
*1589 FILLER_4_189
*1590 FILLER_4_195
*1591 FILLER_4_197
*1592 FILLER_4_209
*1593 FILLER_4_221
*1594 FILLER_4_233
*1595 FILLER_4_24
*1596 FILLER_4_245