*SPEF "ieee 1481-1999"
*DESIGN "asinghani_beepboop"
*DATE "11:11:11 Fri 11 11, 1111"
*VENDOR "OpenRCX"
*PROGRAM "Parallel Extraction"
*VERSION "1.0"
*DESIGN_FLOW "NAME_SCOPE LOCAL" "PIN_CAP NONE"
*DIVIDER /
*DELIMITER :
*BUS_DELIMITER []
*T_UNIT 1 NS
*C_UNIT 1 PF
*R_UNIT 1 OHM
*L_UNIT 1 HENRY

*NAME_MAP
*1 io_in[0]
*2 io_in[1]
*3 io_in[2]
*4 io_in[3]
*5 io_in[4]
*6 io_in[5]
*7 io_in[6]
*8 io_in[7]
*9 io_out[0]
*10 io_out[1]
*11 io_out[2]
*12 io_out[3]
*13 io_out[4]
*14 io_out[5]
*15 io_out[6]
*16 io_out[7]
*19 _000_
*20 _001_
*21 _002_
*22 _003_
*23 _004_
*24 _005_
*25 _006_
*26 _007_
*27 _008_
*28 _009_
*29 _010_
*30 _011_
*31 _016_
*32 _017_
*33 _018_
*34 _019_
*35 _020_
*36 _021_
*37 _022_
*38 _023_
*39 _024_
*40 _025_
*41 _026_
*42 _027_
*43 _028_
*44 _029_
*45 _030_
*46 _031_
*47 _032_
*48 _033_
*49 _034_
*50 _035_
*51 _036_
*52 _037_
*53 _038_
*54 _039_
*55 _040_
*56 _041_
*57 _042_
*58 _043_
*59 _044_
*60 _045_
*61 _046_
*62 _047_
*63 _048_
*64 _049_
*65 _050_
*66 _051_
*67 _052_
*68 _053_
*69 _054_
*70 _055_
*71 _056_
*72 _057_
*73 _058_
*74 _059_
*75 _060_
*76 _061_
*77 _062_
*78 _063_
*79 _064_
*80 _065_
*81 _066_
*82 _067_
*83 _068_
*84 _069_
*85 _070_
*86 _071_
*87 _072_
*88 _073_
*89 _074_
*90 _075_
*91 _076_
*92 _077_
*93 _078_
*94 _079_
*95 _080_
*96 _081_
*97 _082_
*98 _083_
*99 _084_
*100 _085_
*101 _086_
*102 _087_
*103 _088_
*104 _089_
*105 _090_
*106 _091_
*107 _092_
*108 _093_
*109 _094_
*110 _095_
*111 _096_
*112 _097_
*113 _098_
*114 _099_
*115 _100_
*116 _101_
*117 _102_
*118 _103_
*119 _104_
*120 _105_
*121 _106_
*122 _107_
*123 _108_
*124 _109_
*125 _110_
*126 _111_
*127 _112_
*128 _113_
*129 _114_
*130 _115_
*131 _116_
*132 _117_
*133 _118_
*134 _119_
*135 _120_
*136 _121_
*137 _122_
*138 _123_
*139 _124_
*140 _125_
*141 _126_
*142 _127_
*143 _128_
*144 _129_
*145 _130_
*146 _131_
*147 _132_
*148 _133_
*149 _134_
*150 _135_
*151 _136_
*152 _137_
*153 _138_
*154 _139_
*155 _140_
*156 _141_
*157 _142_
*158 _143_
*159 _144_
*160 _145_
*161 _146_
*162 _147_
*163 _148_
*164 _149_
*165 _150_
*166 _151_
*167 _152_
*168 _153_
*169 _154_
*170 _155_
*171 _156_
*172 _157_
*173 _158_
*174 _159_
*175 _160_
*176 _161_
*177 _162_
*178 _163_
*179 _164_
*180 _165_
*181 _166_
*182 _167_
*183 chr_out
*184 chr_out_valid
*185 clknet_0_io_in[0]
*186 clknet_1_0__leaf_io_in[0]
*187 clknet_1_1__leaf_io_in[0]
*188 counter\[0\]
*189 counter\[10\]
*190 counter\[11\]
*191 counter\[12\]
*192 counter\[13\]
*193 counter\[14\]
*194 counter\[15\]
*195 counter\[1\]
*196 counter\[2\]
*197 counter\[3\]
*198 counter\[4\]
*199 counter\[5\]
*200 counter\[6\]
*201 counter\[7\]
*202 counter\[8\]
*203 counter\[9\]
*204 green
*205 net1
*206 net2
*207 net3
*208 net4
*209 net5
*210 net6
*211 no_walk
*212 red
*213 the_beepbooper
*214 yellow
*215 FILLER_0_109
*216 FILLER_0_113
*217 FILLER_0_125
*218 FILLER_0_137
*219 FILLER_0_141
*220 FILLER_0_153
*221 FILLER_0_165
*222 FILLER_0_169
*223 FILLER_0_181
*224 FILLER_0_193
*225 FILLER_0_197
*226 FILLER_0_209
*227 FILLER_0_221
*228 FILLER_0_225
*229 FILLER_0_237
*230 FILLER_0_24
*231 FILLER_0_249
*232 FILLER_0_253
*233 FILLER_0_265
*234 FILLER_0_277
*235 FILLER_0_281
*236 FILLER_0_293
*237 FILLER_0_3
*238 FILLER_0_46
*239 FILLER_0_54
*240 FILLER_0_57
*241 FILLER_0_69
*242 FILLER_0_7
*243 FILLER_0_81
*244 FILLER_0_85
*245 FILLER_0_97
*246 FILLER_10_109
*247 FILLER_10_11
*248 FILLER_10_121
*249 FILLER_10_133
*250 FILLER_10_139
*251 FILLER_10_141
*252 FILLER_10_153
*253 FILLER_10_165
*254 FILLER_10_177
*255 FILLER_10_18
*256 FILLER_10_189
*257 FILLER_10_195
*258 FILLER_10_197
*259 FILLER_10_209
*260 FILLER_10_221
*261 FILLER_10_233
*262 FILLER_10_245
*263 FILLER_10_251
*264 FILLER_10_253
*265 FILLER_10_26
*266 FILLER_10_265
*267 FILLER_10_277
*268 FILLER_10_289
*269 FILLER_10_297
*270 FILLER_10_3
*271 FILLER_10_45
*272 FILLER_10_57
*273 FILLER_10_69
*274 FILLER_10_7
*275 FILLER_10_81
*276 FILLER_10_85
*277 FILLER_10_97
*278 FILLER_11_105
*279 FILLER_11_111
*280 FILLER_11_113
*281 FILLER_11_125
*282 FILLER_11_137
*283 FILLER_11_149
*284 FILLER_11_161
*285 FILLER_11_167
*286 FILLER_11_169
*287 FILLER_11_18
*288 FILLER_11_181
*289 FILLER_11_193
*290 FILLER_11_205
*291 FILLER_11_217
*292 FILLER_11_22
*293 FILLER_11_223
*294 FILLER_11_225
*295 FILLER_11_237
*296 FILLER_11_249
*297 FILLER_11_261
*298 FILLER_11_273
*299 FILLER_11_279
*300 FILLER_11_281
*301 FILLER_11_293
*302 FILLER_11_39
*303 FILLER_11_51
*304 FILLER_11_55
*305 FILLER_11_57
*306 FILLER_11_6
*307 FILLER_11_69
*308 FILLER_11_81
*309 FILLER_11_93
*310 FILLER_12_109
*311 FILLER_12_121
*312 FILLER_12_133
*313 FILLER_12_139
*314 FILLER_12_141
*315 FILLER_12_15
*316 FILLER_12_153
*317 FILLER_12_165
*318 FILLER_12_177
*319 FILLER_12_189
*320 FILLER_12_195
*321 FILLER_12_197
*322 FILLER_12_209
*323 FILLER_12_221
*324 FILLER_12_233
*325 FILLER_12_245
*326 FILLER_12_251
*327 FILLER_12_253
*328 FILLER_12_265
*329 FILLER_12_27
*330 FILLER_12_277
*331 FILLER_12_289
*332 FILLER_12_29
*333 FILLER_12_297
*334 FILLER_12_3
*335 FILLER_12_41
*336 FILLER_12_53
*337 FILLER_12_65
*338 FILLER_12_77
*339 FILLER_12_83
*340 FILLER_12_85
*341 FILLER_12_97
*342 FILLER_13_110
*343 FILLER_13_113
*344 FILLER_13_125
*345 FILLER_13_137
*346 FILLER_13_149
*347 FILLER_13_15
*348 FILLER_13_161
*349 FILLER_13_167
*350 FILLER_13_169
*351 FILLER_13_181
*352 FILLER_13_193
*353 FILLER_13_205
*354 FILLER_13_217
*355 FILLER_13_223
*356 FILLER_13_225
*357 FILLER_13_237
*358 FILLER_13_249
*359 FILLER_13_261
*360 FILLER_13_27
*361 FILLER_13_273
*362 FILLER_13_279
*363 FILLER_13_281
*364 FILLER_13_293
*365 FILLER_13_3
*366 FILLER_13_39
*367 FILLER_13_51
*368 FILLER_13_55
*369 FILLER_13_62
*370 FILLER_13_74
*371 FILLER_13_86
*372 FILLER_13_98
*373 FILLER_14_109
*374 FILLER_14_121
*375 FILLER_14_133
*376 FILLER_14_139
*377 FILLER_14_141
*378 FILLER_14_15
*379 FILLER_14_153
*380 FILLER_14_165
*381 FILLER_14_177
*382 FILLER_14_189
*383 FILLER_14_195
*384 FILLER_14_197
*385 FILLER_14_209
*386 FILLER_14_221
*387 FILLER_14_233
*388 FILLER_14_245
*389 FILLER_14_251
*390 FILLER_14_253
*391 FILLER_14_265
*392 FILLER_14_27
*393 FILLER_14_277
*394 FILLER_14_289
*395 FILLER_14_29
*396 FILLER_14_297
*397 FILLER_14_3
*398 FILLER_14_41
*399 FILLER_14_53
*400 FILLER_14_65
*401 FILLER_14_77
*402 FILLER_14_83
*403 FILLER_14_85
*404 FILLER_14_97
*405 FILLER_15_105
*406 FILLER_15_111
*407 FILLER_15_113
*408 FILLER_15_125
*409 FILLER_15_137
*410 FILLER_15_149
*411 FILLER_15_15
*412 FILLER_15_161
*413 FILLER_15_167
*414 FILLER_15_169
*415 FILLER_15_181
*416 FILLER_15_193
*417 FILLER_15_205
*418 FILLER_15_217
*419 FILLER_15_223
*420 FILLER_15_225
*421 FILLER_15_237
*422 FILLER_15_249
*423 FILLER_15_261
*424 FILLER_15_27
*425 FILLER_15_273
*426 FILLER_15_279
*427 FILLER_15_281
*428 FILLER_15_293
*429 FILLER_15_3
*430 FILLER_15_39
*431 FILLER_15_51
*432 FILLER_15_55
*433 FILLER_15_57
*434 FILLER_15_69
*435 FILLER_15_81
*436 FILLER_15_93
*437 FILLER_16_109
*438 FILLER_16_121
*439 FILLER_16_133
*440 FILLER_16_139
*441 FILLER_16_141
*442 FILLER_16_15
*443 FILLER_16_153
*444 FILLER_16_165
*445 FILLER_16_177
*446 FILLER_16_189
*447 FILLER_16_195
*448 FILLER_16_197
*449 FILLER_16_209
*450 FILLER_16_221
*451 FILLER_16_233
*452 FILLER_16_245
*453 FILLER_16_251
*454 FILLER_16_253
*455 FILLER_16_265
*456 FILLER_16_27
*457 FILLER_16_277
*458 FILLER_16_289
*459 FILLER_16_29
*460 FILLER_16_297
*461 FILLER_16_3
*462 FILLER_16_44
*463 FILLER_16_56
*464 FILLER_16_68
*465 FILLER_16_80
*466 FILLER_16_85
*467 FILLER_16_97
*468 FILLER_17_105
*469 FILLER_17_111
*470 FILLER_17_113
*471 FILLER_17_125
*472 FILLER_17_137
*473 FILLER_17_149
*474 FILLER_17_15
*475 FILLER_17_161
*476 FILLER_17_167
*477 FILLER_17_169
*478 FILLER_17_181
*479 FILLER_17_193
*480 FILLER_17_205
*481 FILLER_17_217
*482 FILLER_17_223
*483 FILLER_17_225
*484 FILLER_17_237
*485 FILLER_17_249
*486 FILLER_17_261
*487 FILLER_17_27
*488 FILLER_17_273
*489 FILLER_17_279
*490 FILLER_17_281
*491 FILLER_17_293
*492 FILLER_17_3
*493 FILLER_17_39
*494 FILLER_17_51
*495 FILLER_17_55
*496 FILLER_17_57
*497 FILLER_17_69
*498 FILLER_17_81
*499 FILLER_17_93
*500 FILLER_18_109
*501 FILLER_18_121
*502 FILLER_18_133
*503 FILLER_18_139
*504 FILLER_18_141
*505 FILLER_18_15
*506 FILLER_18_153
*507 FILLER_18_165
*508 FILLER_18_177
*509 FILLER_18_189
*510 FILLER_18_195
*511 FILLER_18_197
*512 FILLER_18_209
*513 FILLER_18_221
*514 FILLER_18_233
*515 FILLER_18_245
*516 FILLER_18_251
*517 FILLER_18_253
*518 FILLER_18_265
*519 FILLER_18_27
*520 FILLER_18_277
*521 FILLER_18_289
*522 FILLER_18_29
*523 FILLER_18_297
*524 FILLER_18_3
*525 FILLER_18_41
*526 FILLER_18_48
*527 FILLER_18_60
*528 FILLER_18_65
*529 FILLER_18_77
*530 FILLER_18_83
*531 FILLER_18_85
*532 FILLER_18_97
*533 FILLER_19_103
*534 FILLER_19_111
*535 FILLER_19_113
*536 FILLER_19_125
*537 FILLER_19_137
*538 FILLER_19_149
*539 FILLER_19_15
*540 FILLER_19_161
*541 FILLER_19_167
*542 FILLER_19_169
*543 FILLER_19_181
*544 FILLER_19_193
*545 FILLER_19_205
*546 FILLER_19_217
*547 FILLER_19_223
*548 FILLER_19_225
*549 FILLER_19_237
*550 FILLER_19_249
*551 FILLER_19_261
*552 FILLER_19_273
*553 FILLER_19_279
*554 FILLER_19_281
*555 FILLER_19_29
*556 FILLER_19_293
*557 FILLER_19_3
*558 FILLER_19_41
*559 FILLER_19_53
*560 FILLER_19_57
*561 FILLER_19_69
*562 FILLER_19_75
*563 FILLER_19_79
*564 FILLER_19_91
*565 FILLER_1_100
*566 FILLER_1_113
*567 FILLER_1_125
*568 FILLER_1_137
*569 FILLER_1_149
*570 FILLER_1_15
*571 FILLER_1_161
*572 FILLER_1_167
*573 FILLER_1_169
*574 FILLER_1_181
*575 FILLER_1_193
*576 FILLER_1_205
*577 FILLER_1_217
*578 FILLER_1_223
*579 FILLER_1_225
*580 FILLER_1_237
*581 FILLER_1_249
*582 FILLER_1_261
*583 FILLER_1_273
*584 FILLER_1_279
*585 FILLER_1_281
*586 FILLER_1_293
*587 FILLER_1_3
*588 FILLER_1_36
*589 FILLER_1_48
*590 FILLER_1_57
*591 FILLER_1_65
*592 FILLER_1_76
*593 FILLER_1_88
*594 FILLER_20_104
*595 FILLER_20_116
*596 FILLER_20_128
*597 FILLER_20_13
*598 FILLER_20_141
*599 FILLER_20_153
*600 FILLER_20_165
*601 FILLER_20_177
*602 FILLER_20_189
*603 FILLER_20_195
*604 FILLER_20_197
*605 FILLER_20_209
*606 FILLER_20_221
*607 FILLER_20_233
*608 FILLER_20_245
*609 FILLER_20_25
*610 FILLER_20_251
*611 FILLER_20_253
*612 FILLER_20_265
*613 FILLER_20_277
*614 FILLER_20_289
*615 FILLER_20_29
*616 FILLER_20_297
*617 FILLER_20_3
*618 FILLER_20_44
*619 FILLER_20_52
*620 FILLER_20_56
*621 FILLER_20_68
*622 FILLER_20_74
*623 FILLER_20_78
*624 FILLER_20_85
*625 FILLER_20_9
*626 FILLER_20_92
*627 FILLER_21_108
*628 FILLER_21_113
*629 FILLER_21_125
*630 FILLER_21_137
*631 FILLER_21_149
*632 FILLER_21_15
*633 FILLER_21_161
*634 FILLER_21_167
*635 FILLER_21_169
*636 FILLER_21_181
*637 FILLER_21_193
*638 FILLER_21_205
*639 FILLER_21_217
*640 FILLER_21_223
*641 FILLER_21_225
*642 FILLER_21_237
*643 FILLER_21_249
*644 FILLER_21_261
*645 FILLER_21_27
*646 FILLER_21_273
*647 FILLER_21_279
*648 FILLER_21_281
*649 FILLER_21_293
*650 FILLER_21_3
*651 FILLER_21_41
*652 FILLER_21_49
*653 FILLER_21_55
*654 FILLER_21_61
*655 FILLER_21_67
*656 FILLER_21_71
*657 FILLER_21_82
*658 FILLER_21_89
*659 FILLER_21_96
*660 FILLER_22_105
*661 FILLER_22_117
*662 FILLER_22_129
*663 FILLER_22_137
*664 FILLER_22_141
*665 FILLER_22_15
*666 FILLER_22_153
*667 FILLER_22_165
*668 FILLER_22_177
*669 FILLER_22_189
*670 FILLER_22_195
*671 FILLER_22_197
*672 FILLER_22_209
*673 FILLER_22_221
*674 FILLER_22_233
*675 FILLER_22_245
*676 FILLER_22_251
*677 FILLER_22_253
*678 FILLER_22_265
*679 FILLER_22_27
*680 FILLER_22_277
*681 FILLER_22_289
*682 FILLER_22_29
*683 FILLER_22_297
*684 FILLER_22_3
*685 FILLER_22_45
*686 FILLER_22_59
*687 FILLER_22_67
*688 FILLER_22_71
*689 FILLER_22_77
*690 FILLER_22_83
*691 FILLER_22_85
*692 FILLER_22_96
*693 FILLER_23_100
*694 FILLER_23_107
*695 FILLER_23_111
*696 FILLER_23_116
*697 FILLER_23_128
*698 FILLER_23_140
*699 FILLER_23_15
*700 FILLER_23_152
*701 FILLER_23_164
*702 FILLER_23_169
*703 FILLER_23_181
*704 FILLER_23_193
*705 FILLER_23_205
*706 FILLER_23_217
*707 FILLER_23_223
*708 FILLER_23_225
*709 FILLER_23_237
*710 FILLER_23_249
*711 FILLER_23_261
*712 FILLER_23_27
*713 FILLER_23_273
*714 FILLER_23_279
*715 FILLER_23_281
*716 FILLER_23_293
*717 FILLER_23_3
*718 FILLER_23_39
*719 FILLER_23_43
*720 FILLER_23_51
*721 FILLER_23_55
*722 FILLER_23_57
*723 FILLER_23_67
*724 FILLER_23_73
*725 FILLER_23_80
*726 FILLER_23_88
*727 FILLER_24_105
*728 FILLER_24_113
*729 FILLER_24_124
*730 FILLER_24_136
*731 FILLER_24_141
*732 FILLER_24_15
*733 FILLER_24_153
*734 FILLER_24_165
*735 FILLER_24_177
*736 FILLER_24_189
*737 FILLER_24_195
*738 FILLER_24_197
*739 FILLER_24_209
*740 FILLER_24_221
*741 FILLER_24_233
*742 FILLER_24_245
*743 FILLER_24_251
*744 FILLER_24_253
*745 FILLER_24_265
*746 FILLER_24_27
*747 FILLER_24_277
*748 FILLER_24_289
*749 FILLER_24_29
*750 FILLER_24_297
*751 FILLER_24_3
*752 FILLER_24_37
*753 FILLER_24_44
*754 FILLER_24_53
*755 FILLER_24_66
*756 FILLER_24_80
*757 FILLER_24_85
*758 FILLER_24_89
*759 FILLER_24_96
*760 FILLER_25_108
*761 FILLER_25_117
*762 FILLER_25_131
*763 FILLER_25_143
*764 FILLER_25_15
*765 FILLER_25_155
*766 FILLER_25_167
*767 FILLER_25_169
*768 FILLER_25_181
*769 FILLER_25_193
*770 FILLER_25_205
*771 FILLER_25_217
*772 FILLER_25_223
*773 FILLER_25_225
*774 FILLER_25_23
*775 FILLER_25_237
*776 FILLER_25_249
*777 FILLER_25_261
*778 FILLER_25_273
*779 FILLER_25_279
*780 FILLER_25_281
*781 FILLER_25_293
*782 FILLER_25_3
*783 FILLER_25_35
*784 FILLER_25_45
*785 FILLER_25_52
*786 FILLER_25_57
*787 FILLER_25_73
*788 FILLER_25_87
*789 FILLER_25_94
*790 FILLER_26_107
*791 FILLER_26_116
*792 FILLER_26_128
*793 FILLER_26_141
*794 FILLER_26_15
*795 FILLER_26_153
*796 FILLER_26_165
*797 FILLER_26_177
*798 FILLER_26_189
*799 FILLER_26_195
*800 FILLER_26_197
*801 FILLER_26_209
*802 FILLER_26_221
*803 FILLER_26_233
*804 FILLER_26_24
*805 FILLER_26_245
*806 FILLER_26_251
*807 FILLER_26_253
*808 FILLER_26_265
*809 FILLER_26_277
*810 FILLER_26_289
*811 FILLER_26_297
*812 FILLER_26_3
*813 FILLER_26_32
*814 FILLER_26_36
*815 FILLER_26_45
*816 FILLER_26_54
*817 FILLER_26_68
*818 FILLER_26_79
*819 FILLER_26_83
*820 FILLER_26_95
*821 FILLER_27_103
*822 FILLER_27_111
*823 FILLER_27_113
*824 FILLER_27_125
*825 FILLER_27_137
*826 FILLER_27_149
*827 FILLER_27_15
*828 FILLER_27_161
*829 FILLER_27_167
*830 FILLER_27_169
*831 FILLER_27_181
*832 FILLER_27_193
*833 FILLER_27_205
*834 FILLER_27_217
*835 FILLER_27_223
*836 FILLER_27_225
*837 FILLER_27_237
*838 FILLER_27_249
*839 FILLER_27_261
*840 FILLER_27_27
*841 FILLER_27_273
*842 FILLER_27_279
*843 FILLER_27_281
*844 FILLER_27_293
*845 FILLER_27_3
*846 FILLER_27_31
*847 FILLER_27_35
*848 FILLER_27_44
*849 FILLER_27_52
*850 FILLER_27_62
*851 FILLER_27_75
*852 FILLER_27_87
*853 FILLER_27_95
*854 FILLER_28_107
*855 FILLER_28_116
*856 FILLER_28_125
*857 FILLER_28_137
*858 FILLER_28_141
*859 FILLER_28_15
*860 FILLER_28_153
*861 FILLER_28_165
*862 FILLER_28_177
*863 FILLER_28_189
*864 FILLER_28_195
*865 FILLER_28_197
*866 FILLER_28_209
*867 FILLER_28_221
*868 FILLER_28_233
*869 FILLER_28_24
*870 FILLER_28_245
*871 FILLER_28_251
*872 FILLER_28_253
*873 FILLER_28_265
*874 FILLER_28_277
*875 FILLER_28_289
*876 FILLER_28_297
*877 FILLER_28_3
*878 FILLER_28_35
*879 FILLER_28_48
*880 FILLER_28_62
*881 FILLER_28_74
*882 FILLER_28_82
*883 FILLER_28_95
*884 FILLER_29_102
*885 FILLER_29_110
*886 FILLER_29_113
*887 FILLER_29_117
*888 FILLER_29_129
*889 FILLER_29_133
*890 FILLER_29_138
*891 FILLER_29_15
*892 FILLER_29_150
*893 FILLER_29_162
*894 FILLER_29_169
*895 FILLER_29_181
*896 FILLER_29_193
*897 FILLER_29_20
*898 FILLER_29_205
*899 FILLER_29_217
*900 FILLER_29_223
*901 FILLER_29_225
*902 FILLER_29_237
*903 FILLER_29_249
*904 FILLER_29_261
*905 FILLER_29_273
*906 FILLER_29_279
*907 FILLER_29_28
*908 FILLER_29_281
*909 FILLER_29_293
*910 FILLER_29_3
*911 FILLER_29_34
*912 FILLER_29_42
*913 FILLER_29_52
*914 FILLER_29_60
*915 FILLER_29_71
*916 FILLER_29_78
*917 FILLER_29_92
*918 FILLER_2_109
*919 FILLER_2_121
*920 FILLER_2_133
*921 FILLER_2_139
*922 FILLER_2_141
*923 FILLER_2_153
*924 FILLER_2_165
*925 FILLER_2_177
*926 FILLER_2_189
*927 FILLER_2_195
*928 FILLER_2_197
*929 FILLER_2_209
*930 FILLER_2_221
*931 FILLER_2_233
*932 FILLER_2_24
*933 FILLER_2_245
*934 FILLER_2_251
*935 FILLER_2_253
*936 FILLER_2_265
*937 FILLER_2_277
*938 FILLER_2_289
*939 FILLER_2_29
*940 FILLER_2_297
*941 FILLER_2_3
*942 FILLER_2_35
*943 FILLER_2_52
*944 FILLER_2_7
*945 FILLER_2_72
*946 FILLER_2_85
*947 FILLER_2_97
*948 FILLER_30_106
*949 FILLER_30_115
*950 FILLER_30_127
*951 FILLER_30_139
*952 FILLER_30_144
*953 FILLER_30_15
*954 FILLER_30_156
*955 FILLER_30_168
*956 FILLER_30_180
*957 FILLER_30_192
*958 FILLER_30_197
*959 FILLER_30_209
*960 FILLER_30_21
*961 FILLER_30_221
*962 FILLER_30_233
*963 FILLER_30_245
*964 FILLER_30_251
*965 FILLER_30_253
*966 FILLER_30_265
*967 FILLER_30_27
*968 FILLER_30_277
*969 FILLER_30_289
*970 FILLER_30_297
*971 FILLER_30_3
*972 FILLER_30_32
*973 FILLER_30_38
*974 FILLER_30_42
*975 FILLER_30_56
*976 FILLER_30_67
*977 FILLER_30_71
*978 FILLER_30_79
*979 FILLER_30_83
*980 FILLER_30_91
*981 FILLER_30_99
*982 FILLER_31_103
*983 FILLER_31_111
*984 FILLER_31_113
*985 FILLER_31_128
*986 FILLER_31_140
*987 FILLER_31_15
*988 FILLER_31_152
*989 FILLER_31_164
*990 FILLER_31_169
*991 FILLER_31_181
*992 FILLER_31_193
*993 FILLER_31_205
*994 FILLER_31_21
*995 FILLER_31_217
*996 FILLER_31_223
*997 FILLER_31_225
*998 FILLER_31_237
*999 FILLER_31_249
*1000 FILLER_31_26
*1001 FILLER_31_261
*1002 FILLER_31_273
*1003 FILLER_31_279
*1004 FILLER_31_281
*1005 FILLER_31_293
*1006 FILLER_31_3
*1007 FILLER_31_37
*1008 FILLER_31_50
*1009 FILLER_31_57
*1010 FILLER_31_61
*1011 FILLER_31_70
*1012 FILLER_31_74
*1013 FILLER_31_82
*1014 FILLER_31_95
*1015 FILLER_32_103
*1016 FILLER_32_114
*1017 FILLER_32_121
*1018 FILLER_32_133
*1019 FILLER_32_139
*1020 FILLER_32_141
*1021 FILLER_32_15
*1022 FILLER_32_153
*1023 FILLER_32_165
*1024 FILLER_32_177
*1025 FILLER_32_189
*1026 FILLER_32_195
*1027 FILLER_32_197
*1028 FILLER_32_209
*1029 FILLER_32_221
*1030 FILLER_32_233
*1031 FILLER_32_24
*1032 FILLER_32_245
*1033 FILLER_32_251
*1034 FILLER_32_253
*1035 FILLER_32_265
*1036 FILLER_32_277
*1037 FILLER_32_289
*1038 FILLER_32_297
*1039 FILLER_32_3
*1040 FILLER_32_36
*1041 FILLER_32_47
*1042 FILLER_32_59
*1043 FILLER_32_63
*1044 FILLER_32_74
*1045 FILLER_32_82
*1046 FILLER_32_85
*1047 FILLER_32_90
*1048 FILLER_33_108
*1049 FILLER_33_113
*1050 FILLER_33_117
*1051 FILLER_33_126
*1052 FILLER_33_137
*1053 FILLER_33_149
*1054 FILLER_33_15
*1055 FILLER_33_161
*1056 FILLER_33_167
*1057 FILLER_33_169
*1058 FILLER_33_181
*1059 FILLER_33_193
*1060 FILLER_33_205
*1061 FILLER_33_217
*1062 FILLER_33_223
*1063 FILLER_33_225
*1064 FILLER_33_237
*1065 FILLER_33_249
*1066 FILLER_33_261
*1067 FILLER_33_27
*1068 FILLER_33_273
*1069 FILLER_33_279
*1070 FILLER_33_281
*1071 FILLER_33_293
*1072 FILLER_33_3
*1073 FILLER_33_39
*1074 FILLER_33_52
*1075 FILLER_33_57
*1076 FILLER_33_68
*1077 FILLER_33_75
*1078 FILLER_33_83
*1079 FILLER_33_93
*1080 FILLER_34_104
*1081 FILLER_34_11
*1082 FILLER_34_112
*1083 FILLER_34_118
*1084 FILLER_34_124
*1085 FILLER_34_131
*1086 FILLER_34_139
*1087 FILLER_34_151
*1088 FILLER_34_16
*1089 FILLER_34_163
*1090 FILLER_34_175
*1091 FILLER_34_187
*1092 FILLER_34_195
*1093 FILLER_34_197
*1094 FILLER_34_209
*1095 FILLER_34_221
*1096 FILLER_34_233
*1097 FILLER_34_245
*1098 FILLER_34_251
*1099 FILLER_34_253
*1100 FILLER_34_265
*1101 FILLER_34_277
*1102 FILLER_34_289
*1103 FILLER_34_29
*1104 FILLER_34_297
*1105 FILLER_34_3
*1106 FILLER_34_40
*1107 FILLER_34_56
*1108 FILLER_34_68
*1109 FILLER_34_72
*1110 FILLER_34_80
*1111 FILLER_34_85
*1112 FILLER_34_92
*1113 FILLER_35_108
*1114 FILLER_35_113
*1115 FILLER_35_131
*1116 FILLER_35_143
*1117 FILLER_35_15
*1118 FILLER_35_155
*1119 FILLER_35_167
*1120 FILLER_35_169
*1121 FILLER_35_181
*1122 FILLER_35_193
*1123 FILLER_35_205
*1124 FILLER_35_217
*1125 FILLER_35_223
*1126 FILLER_35_225
*1127 FILLER_35_237
*1128 FILLER_35_249
*1129 FILLER_35_261
*1130 FILLER_35_27
*1131 FILLER_35_273
*1132 FILLER_35_279
*1133 FILLER_35_281
*1134 FILLER_35_293
*1135 FILLER_35_3
*1136 FILLER_35_31
*1137 FILLER_35_37
*1138 FILLER_35_49
*1139 FILLER_35_55
*1140 FILLER_35_57
*1141 FILLER_35_65
*1142 FILLER_35_71
*1143 FILLER_35_75
*1144 FILLER_35_82
*1145 FILLER_35_96
*1146 FILLER_36_112
*1147 FILLER_36_124
*1148 FILLER_36_136
*1149 FILLER_36_141
*1150 FILLER_36_15
*1151 FILLER_36_153
*1152 FILLER_36_165
*1153 FILLER_36_177
*1154 FILLER_36_189
*1155 FILLER_36_195
*1156 FILLER_36_197
*1157 FILLER_36_209
*1158 FILLER_36_221
*1159 FILLER_36_233
*1160 FILLER_36_245
*1161 FILLER_36_251
*1162 FILLER_36_253
*1163 FILLER_36_265
*1164 FILLER_36_27
*1165 FILLER_36_277
*1166 FILLER_36_289
*1167 FILLER_36_29
*1168 FILLER_36_297
*1169 FILLER_36_3
*1170 FILLER_36_35
*1171 FILLER_36_46
*1172 FILLER_36_53
*1173 FILLER_36_63
*1174 FILLER_36_70
*1175 FILLER_36_82
*1176 FILLER_36_85
*1177 FILLER_36_96
*1178 FILLER_37_108
*1179 FILLER_37_113
*1180 FILLER_37_125
*1181 FILLER_37_137
*1182 FILLER_37_149
*1183 FILLER_37_15
*1184 FILLER_37_161
*1185 FILLER_37_167
*1186 FILLER_37_169
*1187 FILLER_37_181
*1188 FILLER_37_193
*1189 FILLER_37_205
*1190 FILLER_37_217
*1191 FILLER_37_223
*1192 FILLER_37_225
*1193 FILLER_37_23
*1194 FILLER_37_237
*1195 FILLER_37_249
*1196 FILLER_37_261
*1197 FILLER_37_273
*1198 FILLER_37_279
*1199 FILLER_37_281
*1200 FILLER_37_293
*1201 FILLER_37_3
*1202 FILLER_37_33
*1203 FILLER_37_37
*1204 FILLER_37_46
*1205 FILLER_37_54
*1206 FILLER_37_67
*1207 FILLER_37_79
*1208 FILLER_37_89
*1209 FILLER_38_101
*1210 FILLER_38_105
*1211 FILLER_38_113
*1212 FILLER_38_126
*1213 FILLER_38_138
*1214 FILLER_38_141
*1215 FILLER_38_15
*1216 FILLER_38_153
*1217 FILLER_38_165
*1218 FILLER_38_177
*1219 FILLER_38_189
*1220 FILLER_38_195
*1221 FILLER_38_197
*1222 FILLER_38_209
*1223 FILLER_38_221
*1224 FILLER_38_233
*1225 FILLER_38_245
*1226 FILLER_38_251
*1227 FILLER_38_253
*1228 FILLER_38_265
*1229 FILLER_38_27
*1230 FILLER_38_277
*1231 FILLER_38_289
*1232 FILLER_38_29
*1233 FILLER_38_297
*1234 FILLER_38_3
*1235 FILLER_38_41
*1236 FILLER_38_47
*1237 FILLER_38_56
*1238 FILLER_38_70
*1239 FILLER_38_80
*1240 FILLER_38_85
*1241 FILLER_38_93
*1242 FILLER_39_100
*1243 FILLER_39_113
*1244 FILLER_39_133
*1245 FILLER_39_145
*1246 FILLER_39_15
*1247 FILLER_39_157
*1248 FILLER_39_165
*1249 FILLER_39_169
*1250 FILLER_39_181
*1251 FILLER_39_193
*1252 FILLER_39_205
*1253 FILLER_39_217
*1254 FILLER_39_22
*1255 FILLER_39_223
*1256 FILLER_39_225
*1257 FILLER_39_237
*1258 FILLER_39_249
*1259 FILLER_39_261
*1260 FILLER_39_273
*1261 FILLER_39_279
*1262 FILLER_39_281
*1263 FILLER_39_293
*1264 FILLER_39_3
*1265 FILLER_39_34
*1266 FILLER_39_46
*1267 FILLER_39_52
*1268 FILLER_39_57
*1269 FILLER_39_61
*1270 FILLER_39_70
*1271 FILLER_39_81
*1272 FILLER_3_105
*1273 FILLER_3_111
*1274 FILLER_3_113
*1275 FILLER_3_125
*1276 FILLER_3_137
*1277 FILLER_3_149
*1278 FILLER_3_161
*1279 FILLER_3_167
*1280 FILLER_3_169
*1281 FILLER_3_181
*1282 FILLER_3_193
*1283 FILLER_3_205
*1284 FILLER_3_217
*1285 FILLER_3_223
*1286 FILLER_3_225
*1287 FILLER_3_237
*1288 FILLER_3_249
*1289 FILLER_3_25
*1290 FILLER_3_261
*1291 FILLER_3_273
*1292 FILLER_3_279
*1293 FILLER_3_281
*1294 FILLER_3_293
*1295 FILLER_3_3
*1296 FILLER_3_45
*1297 FILLER_3_53
*1298 FILLER_3_57
*1299 FILLER_3_69
*1300 FILLER_3_81
*1301 FILLER_3_93
*1302 FILLER_40_100
*1303 FILLER_40_112
*1304 FILLER_40_124
*1305 FILLER_40_136
*1306 FILLER_40_141
*1307 FILLER_40_15
*1308 FILLER_40_153
*1309 FILLER_40_165
*1310 FILLER_40_177
*1311 FILLER_40_189
*1312 FILLER_40_195
*1313 FILLER_40_197
*1314 FILLER_40_209
*1315 FILLER_40_221
*1316 FILLER_40_233
*1317 FILLER_40_245
*1318 FILLER_40_251
*1319 FILLER_40_253
*1320 FILLER_40_265
*1321 FILLER_40_27
*1322 FILLER_40_277
*1323 FILLER_40_289
*1324 FILLER_40_29
*1325 FILLER_40_297
*1326 FILLER_40_3
*1327 FILLER_40_49
*1328 FILLER_40_60
*1329 FILLER_40_72
*1330 FILLER_40_85
*1331 FILLER_41_105
*1332 FILLER_41_111
*1333 FILLER_41_113
*1334 FILLER_41_125
*1335 FILLER_41_137
*1336 FILLER_41_149
*1337 FILLER_41_15
*1338 FILLER_41_161
*1339 FILLER_41_167
*1340 FILLER_41_169
*1341 FILLER_41_181
*1342 FILLER_41_193
*1343 FILLER_41_205
*1344 FILLER_41_217
*1345 FILLER_41_223
*1346 FILLER_41_225
*1347 FILLER_41_237
*1348 FILLER_41_249
*1349 FILLER_41_261
*1350 FILLER_41_27
*1351 FILLER_41_273
*1352 FILLER_41_279
*1353 FILLER_41_281
*1354 FILLER_41_293
*1355 FILLER_41_3
*1356 FILLER_41_39
*1357 FILLER_41_50
*1358 FILLER_41_57
*1359 FILLER_41_69
*1360 FILLER_41_81
*1361 FILLER_41_94
*1362 FILLER_42_104
*1363 FILLER_42_116
*1364 FILLER_42_128
*1365 FILLER_42_141
*1366 FILLER_42_15
*1367 FILLER_42_153
*1368 FILLER_42_165
*1369 FILLER_42_177
*1370 FILLER_42_189
*1371 FILLER_42_195
*1372 FILLER_42_197
*1373 FILLER_42_209
*1374 FILLER_42_221
*1375 FILLER_42_233
*1376 FILLER_42_245
*1377 FILLER_42_251
*1378 FILLER_42_253
*1379 FILLER_42_265
*1380 FILLER_42_27
*1381 FILLER_42_277
*1382 FILLER_42_289
*1383 FILLER_42_29
*1384 FILLER_42_297
*1385 FILLER_42_3
*1386 FILLER_42_41
*1387 FILLER_42_53
*1388 FILLER_42_65
*1389 FILLER_42_77
*1390 FILLER_42_83
*1391 FILLER_42_85
*1392 FILLER_42_92
*1393 FILLER_43_105
*1394 FILLER_43_111
*1395 FILLER_43_113
*1396 FILLER_43_125
*1397 FILLER_43_137
*1398 FILLER_43_149
*1399 FILLER_43_15
*1400 FILLER_43_161
*1401 FILLER_43_167
*1402 FILLER_43_169
*1403 FILLER_43_181
*1404 FILLER_43_193
*1405 FILLER_43_205
*1406 FILLER_43_217
*1407 FILLER_43_223
*1408 FILLER_43_225
*1409 FILLER_43_237
*1410 FILLER_43_249
*1411 FILLER_43_261
*1412 FILLER_43_27
*1413 FILLER_43_273
*1414 FILLER_43_279
*1415 FILLER_43_281
*1416 FILLER_43_293
*1417 FILLER_43_3
*1418 FILLER_43_39
*1419 FILLER_43_51
*1420 FILLER_43_55
*1421 FILLER_43_57
*1422 FILLER_43_69
*1423 FILLER_43_81
*1424 FILLER_43_93
*1425 FILLER_44_109
*1426 FILLER_44_11
*1427 FILLER_44_121
*1428 FILLER_44_133
*1429 FILLER_44_139
*1430 FILLER_44_141
*1431 FILLER_44_153
*1432 FILLER_44_165
*1433 FILLER_44_177
*1434 FILLER_44_189
*1435 FILLER_44_195
*1436 FILLER_44_197
*1437 FILLER_44_209
*1438 FILLER_44_221
*1439 FILLER_44_23
*1440 FILLER_44_233
*1441 FILLER_44_245
*1442 FILLER_44_251
*1443 FILLER_44_253
*1444 FILLER_44_265
*1445 FILLER_44_27
*1446 FILLER_44_277
*1447 FILLER_44_289
*1448 FILLER_44_29
*1449 FILLER_44_297
*1450 FILLER_44_3
*1451 FILLER_44_41
*1452 FILLER_44_53
*1453 FILLER_44_65
*1454 FILLER_44_77
*1455 FILLER_44_83
*1456 FILLER_44_85
*1457 FILLER_44_97
*1458 FILLER_45_105
*1459 FILLER_45_111
*1460 FILLER_45_113
*1461 FILLER_45_130
*1462 FILLER_45_142
*1463 FILLER_45_15
*1464 FILLER_45_154
*1465 FILLER_45_166
*1466 FILLER_45_169
*1467 FILLER_45_181
*1468 FILLER_45_193
*1469 FILLER_45_205
*1470 FILLER_45_217
*1471 FILLER_45_223
*1472 FILLER_45_225
*1473 FILLER_45_237
*1474 FILLER_45_249
*1475 FILLER_45_261
*1476 FILLER_45_27
*1477 FILLER_45_273
*1478 FILLER_45_279
*1479 FILLER_45_281
*1480 FILLER_45_293
*1481 FILLER_45_3
*1482 FILLER_45_39
*1483 FILLER_45_51
*1484 FILLER_45_55
*1485 FILLER_45_57
*1486 FILLER_45_69
*1487 FILLER_45_81
*1488 FILLER_45_93
*1489 FILLER_46_109
*1490 FILLER_46_121
*1491 FILLER_46_133
*1492 FILLER_46_139
*1493 FILLER_46_141
*1494 FILLER_46_15
*1495 FILLER_46_153
*1496 FILLER_46_165
*1497 FILLER_46_177
*1498 FILLER_46_189
*1499 FILLER_46_195
*1500 FILLER_46_197
*1501 FILLER_46_209
*1502 FILLER_46_221
*1503 FILLER_46_233
*1504 FILLER_46_245
*1505 FILLER_46_251
*1506 FILLER_46_253
*1507 FILLER_46_265
*1508 FILLER_46_27
*1509 FILLER_46_277
*1510 FILLER_46_289
*1511 FILLER_46_29
*1512 FILLER_46_297
*1513 FILLER_46_3
*1514 FILLER_46_41
*1515 FILLER_46_53
*1516 FILLER_46_65
*1517 FILLER_46_77
*1518 FILLER_46_83
*1519 FILLER_46_85
*1520 FILLER_46_97
*1521 FILLER_47_105
*1522 FILLER_47_111
*1523 FILLER_47_113
*1524 FILLER_47_125
*1525 FILLER_47_13
*1526 FILLER_47_137
*1527 FILLER_47_149
*1528 FILLER_47_161
*1529 FILLER_47_167
*1530 FILLER_47_169
*1531 FILLER_47_181
*1532 FILLER_47_193
*1533 FILLER_47_205
*1534 FILLER_47_217
*1535 FILLER_47_223
*1536 FILLER_47_225
*1537 FILLER_47_237
*1538 FILLER_47_249
*1539 FILLER_47_25
*1540 FILLER_47_261
*1541 FILLER_47_273
*1542 FILLER_47_279
*1543 FILLER_47_281
*1544 FILLER_47_293
*1545 FILLER_47_3
*1546 FILLER_47_37
*1547 FILLER_47_49
*1548 FILLER_47_55
*1549 FILLER_47_57
*1550 FILLER_47_69
*1551 FILLER_47_81
*1552 FILLER_47_93
*1553 FILLER_48_109
*1554 FILLER_48_121
*1555 FILLER_48_133
*1556 FILLER_48_139
*1557 FILLER_48_141
*1558 FILLER_48_15
*1559 FILLER_48_153
*1560 FILLER_48_165
*1561 FILLER_48_177
*1562 FILLER_48_189
*1563 FILLER_48_195
*1564 FILLER_48_197
*1565 FILLER_48_209
*1566 FILLER_48_221
*1567 FILLER_48_233
*1568 FILLER_48_245
*1569 FILLER_48_251
*1570 FILLER_48_253
*1571 FILLER_48_265
*1572 FILLER_48_27
*1573 FILLER_48_277
*1574 FILLER_48_289
*1575 FILLER_48_297
*1576 FILLER_48_3
*1577 FILLER_48_32
*1578 FILLER_48_44
*1579 FILLER_48_56
*1580 FILLER_48_68
*1581 FILLER_48_80
*1582 FILLER_48_85
*1583 FILLER_48_97
*1584 FILLER_49_105
*1585 FILLER_49_111
*1586 FILLER_49_113
*1587 FILLER_49_125
*1588 FILLER_49_137
*1589 FILLER_49_149
*1590 FILLER_49_15
*1591 FILLER_49_161
*1592 FILLER_49_167
*1593 FILLER_49_169
*1594 FILLER_49_181
*1595 FILLER_49_193
*1596 FILLER_49_205
*1597 FILLER_49_217
*1598 FILLER_49_223
*1599 FILLER_49_225
*1600 FILLER_49_237
*1601 FILLER_49_249
*1602 FILLER_49_261
*1603 FILLER_49_27
*1604 FILLER_49_273
*1605 FILLER_49_279
*1606 FILLER_49_281
*1607 FILLER_49_293
*1608 FILLER_49_3
*1609 FILLER_49_39
*1610 FILLER_49_51
*1611 FILLER_49_55
*1612 FILLER_49_57
*1613 FILLER_49_69
*1614 FILLER_49_81
*1615 FILLER_49_93
*1616 FILLER_4_109
*1617 FILLER_4_121
*1618 FILLER_4_133
*1619 FILLER_4_139
*1620 FILLER_4_141
*1621 FILLER_4_153
*1622 FILLER_4_165
*1623 FILLER_4_177
*1624 FILLER_4_189
*1625 FILLER_4_195
*1626 FILLER_4_197
*1627 FILLER_4_20
*1628 FILLER_4_209
*1629 FILLER_4_221
*1630 FILLER_4_233
*1631 FILLER_4_245
*1632 FILLER_4_251
*1633 FILLER_4_253
*1634 FILLER_4_265
*1635 FILLER_4_277
*1636 FILLER_4_289
*1637 FILLER_4_297
*1638 FILLER_4_3
*1639 FILLER_4_45
*1640 FILLER_4_57
*1641 FILLER_4_69
*1642 FILLER_4_81
*1643 FILLER_4_85
*1644 FILLER_4_97
*1645 FILLER_50_109
*1646 FILLER_50_12
*1647 FILLER_50_121
*1648 FILLER_50_133