*SPEF "ieee 1481-1999"
*DESIGN "Asma_Mohsin_conv_enc_core"
*DATE "11:11:11 Fri 11 11, 1111"
*VENDOR "OpenRCX"
*PROGRAM "Parallel Extraction"
*VERSION "1.0"
*DESIGN_FLOW "NAME_SCOPE LOCAL" "PIN_CAP NONE"
*DIVIDER /
*DELIMITER :
*BUS_DELIMITER []
*T_UNIT 1 NS
*C_UNIT 1 PF
*R_UNIT 1 OHM
*L_UNIT 1 HENRY

*NAME_MAP
*1 io_in[0]
*2 io_in[1]
*3 io_in[2]
*4 io_in[3]
*5 io_in[4]
*6 io_in[5]
*7 io_in[6]
*8 io_in[7]
*9 io_out[0]
*10 io_out[1]
*11 net4
*12 net5
*13 net6
*14 net7
*15 net8
*16 net9
*19 _00_
*20 _01_
*21 _02_
*22 _03_
*23 _04_
*24 _05_
*25 _06_
*26 _07_
*27 _08_
*28 _09_
*29 _10_
*30 _11_
*31 _12_
*32 clknet_0_io_in[0]
*33 clknet_1_0__leaf_io_in[0]
*34 clknet_1_1__leaf_io_in[0]
*35 net1
*36 net2
*37 net3
*38 shift_reg\[0\]
*39 shift_reg\[1\]
*40 shift_reg\[2\]
*41 shift_reg\[3\]
*42 shift_reg\[4\]
*43 Asma_Mohsin_conv_enc_core_4
*44 Asma_Mohsin_conv_enc_core_5
*45 Asma_Mohsin_conv_enc_core_6
*46 Asma_Mohsin_conv_enc_core_7
*47 Asma_Mohsin_conv_enc_core_8
*48 Asma_Mohsin_conv_enc_core_9
*49 FILLER_0_109
*50 FILLER_0_113
*51 FILLER_0_125
*52 FILLER_0_137
*53 FILLER_0_141
*54 FILLER_0_15
*55 FILLER_0_153
*56 FILLER_0_165
*57 FILLER_0_169
*58 FILLER_0_181
*59 FILLER_0_193
*60 FILLER_0_197
*61 FILLER_0_209
*62 FILLER_0_221
*63 FILLER_0_225
*64 FILLER_0_237
*65 FILLER_0_249
*66 FILLER_0_253
*67 FILLER_0_265
*68 FILLER_0_27
*69 FILLER_0_277
*70 FILLER_0_281
*71 FILLER_0_29
*72 FILLER_0_293
*73 FILLER_0_3
*74 FILLER_0_41
*75 FILLER_0_53
*76 FILLER_0_57
*77 FILLER_0_69
*78 FILLER_0_81
*79 FILLER_0_85
*80 FILLER_0_97
*81 FILLER_10_109
*82 FILLER_10_121
*83 FILLER_10_133
*84 FILLER_10_139
*85 FILLER_10_141
*86 FILLER_10_153
*87 FILLER_10_165
*88 FILLER_10_177
*89 FILLER_10_189
*90 FILLER_10_195
*91 FILLER_10_197
*92 FILLER_10_209
*93 FILLER_10_221
*94 FILLER_10_233
*95 FILLER_10_24
*96 FILLER_10_245
*97 FILLER_10_251
*98 FILLER_10_253
*99 FILLER_10_265
*100 FILLER_10_277
*101 FILLER_10_289
*102 FILLER_10_297
*103 FILLER_10_3
*104 FILLER_10_34
*105 FILLER_10_46
*106 FILLER_10_58
*107 FILLER_10_70
*108 FILLER_10_82
*109 FILLER_10_85
*110 FILLER_10_97
*111 FILLER_11_105
*112 FILLER_11_111
*113 FILLER_11_113
*114 FILLER_11_125
*115 FILLER_11_137
*116 FILLER_11_149
*117 FILLER_11_161
*118 FILLER_11_167
*119 FILLER_11_169
*120 FILLER_11_181
*121 FILLER_11_193
*122 FILLER_11_205
*123 FILLER_11_217
*124 FILLER_11_223
*125 FILLER_11_225
*126 FILLER_11_237
*127 FILLER_11_249
*128 FILLER_11_26
*129 FILLER_11_261
*130 FILLER_11_273
*131 FILLER_11_279
*132 FILLER_11_281
*133 FILLER_11_293
*134 FILLER_11_35
*135 FILLER_11_47
*136 FILLER_11_55
*137 FILLER_11_57
*138 FILLER_11_69
*139 FILLER_11_81
*140 FILLER_11_93
*141 FILLER_12_109
*142 FILLER_12_121
*143 FILLER_12_133
*144 FILLER_12_139
*145 FILLER_12_141
*146 FILLER_12_153
*147 FILLER_12_165
*148 FILLER_12_177
*149 FILLER_12_189
*150 FILLER_12_195
*151 FILLER_12_197
*152 FILLER_12_209
*153 FILLER_12_221
*154 FILLER_12_233
*155 FILLER_12_24
*156 FILLER_12_245
*157 FILLER_12_251
*158 FILLER_12_253
*159 FILLER_12_265
*160 FILLER_12_277
*161 FILLER_12_289
*162 FILLER_12_297
*163 FILLER_12_42
*164 FILLER_12_54
*165 FILLER_12_66
*166 FILLER_12_78
*167 FILLER_12_85
*168 FILLER_12_97
*169 FILLER_13_105
*170 FILLER_13_111
*171 FILLER_13_113
*172 FILLER_13_125
*173 FILLER_13_137
*174 FILLER_13_149
*175 FILLER_13_161
*176 FILLER_13_167
*177 FILLER_13_169
*178 FILLER_13_181
*179 FILLER_13_193
*180 FILLER_13_205
*181 FILLER_13_217
*182 FILLER_13_223
*183 FILLER_13_225
*184 FILLER_13_23
*185 FILLER_13_237
*186 FILLER_13_249
*187 FILLER_13_261
*188 FILLER_13_273
*189 FILLER_13_279
*190 FILLER_13_281
*191 FILLER_13_293
*192 FILLER_13_32
*193 FILLER_13_39
*194 FILLER_13_51
*195 FILLER_13_55
*196 FILLER_13_57
*197 FILLER_13_69
*198 FILLER_13_81
*199 FILLER_13_93
*200 FILLER_14_109
*201 FILLER_14_121
*202 FILLER_14_133
*203 FILLER_14_139
*204 FILLER_14_141
*205 FILLER_14_153
*206 FILLER_14_165
*207 FILLER_14_177
*208 FILLER_14_189
*209 FILLER_14_195
*210 FILLER_14_197
*211 FILLER_14_209
*212 FILLER_14_221
*213 FILLER_14_23
*214 FILLER_14_233
*215 FILLER_14_245
*216 FILLER_14_251
*217 FILLER_14_253
*218 FILLER_14_265
*219 FILLER_14_27
*220 FILLER_14_277
*221 FILLER_14_289
*222 FILLER_14_297
*223 FILLER_14_32
*224 FILLER_14_44
*225 FILLER_14_56
*226 FILLER_14_68
*227 FILLER_14_80
*228 FILLER_14_85
*229 FILLER_14_97
*230 FILLER_15_105
*231 FILLER_15_111
*232 FILLER_15_113
*233 FILLER_15_125
*234 FILLER_15_137
*235 FILLER_15_149
*236 FILLER_15_16
*237 FILLER_15_161
*238 FILLER_15_167
*239 FILLER_15_169
*240 FILLER_15_181
*241 FILLER_15_193
*242 FILLER_15_205
*243 FILLER_15_217
*244 FILLER_15_223
*245 FILLER_15_225
*246 FILLER_15_23
*247 FILLER_15_237
*248 FILLER_15_249
*249 FILLER_15_261
*250 FILLER_15_273
*251 FILLER_15_279
*252 FILLER_15_281
*253 FILLER_15_293
*254 FILLER_15_30
*255 FILLER_15_42
*256 FILLER_15_54
*257 FILLER_15_57
*258 FILLER_15_69
*259 FILLER_15_81
*260 FILLER_15_93
*261 FILLER_16_109
*262 FILLER_16_121
*263 FILLER_16_133
*264 FILLER_16_139
*265 FILLER_16_141
*266 FILLER_16_153
*267 FILLER_16_165
*268 FILLER_16_177
*269 FILLER_16_189
*270 FILLER_16_195
*271 FILLER_16_197
*272 FILLER_16_209
*273 FILLER_16_221
*274 FILLER_16_233
*275 FILLER_16_24
*276 FILLER_16_245
*277 FILLER_16_251
*278 FILLER_16_253
*279 FILLER_16_265
*280 FILLER_16_277
*281 FILLER_16_289
*282 FILLER_16_29
*283 FILLER_16_297
*284 FILLER_16_3
*285 FILLER_16_41
*286 FILLER_16_53
*287 FILLER_16_65
*288 FILLER_16_77
*289 FILLER_16_83
*290 FILLER_16_85
*291 FILLER_16_97
*292 FILLER_17_105
*293 FILLER_17_111
*294 FILLER_17_113
*295 FILLER_17_125
*296 FILLER_17_137
*297 FILLER_17_149
*298 FILLER_17_161
*299 FILLER_17_167
*300 FILLER_17_169
*301 FILLER_17_181
*302 FILLER_17_193
*303 FILLER_17_205
*304 FILLER_17_217
*305 FILLER_17_223
*306 FILLER_17_225
*307 FILLER_17_237
*308 FILLER_17_249
*309 FILLER_17_25
*310 FILLER_17_261
*311 FILLER_17_273
*312 FILLER_17_279
*313 FILLER_17_281
*314 FILLER_17_293
*315 FILLER_17_37
*316 FILLER_17_49
*317 FILLER_17_55
*318 FILLER_17_57
*319 FILLER_17_69
*320 FILLER_17_81
*321 FILLER_17_93
*322 FILLER_18_109
*323 FILLER_18_121
*324 FILLER_18_133
*325 FILLER_18_139
*326 FILLER_18_141
*327 FILLER_18_153
*328 FILLER_18_165
*329 FILLER_18_177
*330 FILLER_18_189
*331 FILLER_18_195
*332 FILLER_18_197
*333 FILLER_18_20
*334 FILLER_18_209
*335 FILLER_18_221
*336 FILLER_18_233
*337 FILLER_18_245
*338 FILLER_18_251
*339 FILLER_18_253
*340 FILLER_18_265
*341 FILLER_18_277
*342 FILLER_18_289
*343 FILLER_18_29
*344 FILLER_18_297
*345 FILLER_18_41
*346 FILLER_18_53
*347 FILLER_18_65
*348 FILLER_18_77
*349 FILLER_18_8
*350 FILLER_18_83
*351 FILLER_18_85
*352 FILLER_18_97
*353 FILLER_19_105
*354 FILLER_19_111
*355 FILLER_19_113
*356 FILLER_19_125
*357 FILLER_19_137
*358 FILLER_19_149
*359 FILLER_19_161
*360 FILLER_19_167
*361 FILLER_19_169
*362 FILLER_19_181
*363 FILLER_19_193
*364 FILLER_19_205
*365 FILLER_19_217
*366 FILLER_19_223
*367 FILLER_19_225
*368 FILLER_19_237
*369 FILLER_19_249
*370 FILLER_19_25
*371 FILLER_19_261
*372 FILLER_19_273
*373 FILLER_19_279
*374 FILLER_19_281
*375 FILLER_19_293
*376 FILLER_19_37
*377 FILLER_19_49
*378 FILLER_19_55
*379 FILLER_19_57
*380 FILLER_19_69
*381 FILLER_19_81
*382 FILLER_19_93
*383 FILLER_1_105
*384 FILLER_1_111
*385 FILLER_1_113
*386 FILLER_1_125
*387 FILLER_1_137
*388 FILLER_1_149
*389 FILLER_1_15
*390 FILLER_1_161
*391 FILLER_1_167
*392 FILLER_1_169
*393 FILLER_1_181
*394 FILLER_1_193
*395 FILLER_1_205
*396 FILLER_1_217
*397 FILLER_1_223
*398 FILLER_1_225
*399 FILLER_1_237
*400 FILLER_1_249
*401 FILLER_1_261
*402 FILLER_1_27
*403 FILLER_1_273
*404 FILLER_1_279
*405 FILLER_1_281
*406 FILLER_1_293
*407 FILLER_1_3
*408 FILLER_1_39
*409 FILLER_1_51
*410 FILLER_1_55
*411 FILLER_1_57
*412 FILLER_1_69
*413 FILLER_1_81
*414 FILLER_1_93
*415 FILLER_20_109
*416 FILLER_20_121
*417 FILLER_20_133
*418 FILLER_20_139
*419 FILLER_20_141
*420 FILLER_20_15
*421 FILLER_20_153
*422 FILLER_20_165
*423 FILLER_20_177
*424 FILLER_20_189
*425 FILLER_20_195
*426 FILLER_20_197
*427 FILLER_20_209
*428 FILLER_20_221
*429 FILLER_20_233
*430 FILLER_20_245
*431 FILLER_20_251
*432 FILLER_20_253
*433 FILLER_20_265
*434 FILLER_20_27
*435 FILLER_20_277
*436 FILLER_20_289
*437 FILLER_20_29
*438 FILLER_20_297
*439 FILLER_20_3
*440 FILLER_20_41
*441 FILLER_20_53
*442 FILLER_20_65
*443 FILLER_20_77
*444 FILLER_20_83
*445 FILLER_20_85
*446 FILLER_20_97
*447 FILLER_21_105
*448 FILLER_21_111
*449 FILLER_21_113
*450 FILLER_21_125
*451 FILLER_21_137
*452 FILLER_21_149
*453 FILLER_21_15
*454 FILLER_21_161
*455 FILLER_21_167
*456 FILLER_21_169
*457 FILLER_21_181
*458 FILLER_21_193
*459 FILLER_21_205
*460 FILLER_21_217
*461 FILLER_21_223
*462 FILLER_21_225
*463 FILLER_21_237
*464 FILLER_21_249
*465 FILLER_21_261
*466 FILLER_21_27
*467 FILLER_21_273
*468 FILLER_21_279
*469 FILLER_21_281
*470 FILLER_21_293
*471 FILLER_21_3
*472 FILLER_21_39
*473 FILLER_21_51
*474 FILLER_21_55
*475 FILLER_21_57
*476 FILLER_21_69
*477 FILLER_21_81
*478 FILLER_21_93
*479 FILLER_22_109
*480 FILLER_22_121
*481 FILLER_22_133
*482 FILLER_22_139
*483 FILLER_22_141
*484 FILLER_22_15
*485 FILLER_22_153
*486 FILLER_22_165
*487 FILLER_22_177
*488 FILLER_22_189
*489 FILLER_22_195
*490 FILLER_22_197
*491 FILLER_22_209
*492 FILLER_22_221
*493 FILLER_22_233
*494 FILLER_22_245
*495 FILLER_22_251
*496 FILLER_22_253
*497 FILLER_22_265
*498 FILLER_22_27
*499 FILLER_22_277
*500 FILLER_22_289
*501 FILLER_22_29
*502 FILLER_22_297
*503 FILLER_22_3
*504 FILLER_22_41
*505 FILLER_22_53
*506 FILLER_22_65
*507 FILLER_22_77
*508 FILLER_22_83
*509 FILLER_22_85
*510 FILLER_22_97
*511 FILLER_23_105
*512 FILLER_23_111
*513 FILLER_23_113
*514 FILLER_23_125
*515 FILLER_23_137
*516 FILLER_23_149
*517 FILLER_23_15
*518 FILLER_23_161
*519 FILLER_23_167
*520 FILLER_23_169
*521 FILLER_23_181
*522 FILLER_23_193
*523 FILLER_23_205
*524 FILLER_23_217
*525 FILLER_23_223
*526 FILLER_23_225
*527 FILLER_23_237
*528 FILLER_23_249
*529 FILLER_23_261
*530 FILLER_23_27
*531 FILLER_23_273
*532 FILLER_23_279
*533 FILLER_23_281
*534 FILLER_23_293
*535 FILLER_23_3
*536 FILLER_23_39
*537 FILLER_23_51
*538 FILLER_23_55
*539 FILLER_23_57
*540 FILLER_23_69
*541 FILLER_23_81
*542 FILLER_23_93
*543 FILLER_24_109
*544 FILLER_24_121
*545 FILLER_24_133
*546 FILLER_24_139
*547 FILLER_24_141
*548 FILLER_24_15
*549 FILLER_24_153
*550 FILLER_24_165
*551 FILLER_24_177
*552 FILLER_24_189
*553 FILLER_24_195
*554 FILLER_24_197
*555 FILLER_24_209
*556 FILLER_24_221
*557 FILLER_24_233
*558 FILLER_24_245
*559 FILLER_24_251
*560 FILLER_24_253
*561 FILLER_24_265
*562 FILLER_24_27
*563 FILLER_24_277
*564 FILLER_24_289
*565 FILLER_24_29
*566 FILLER_24_297
*567 FILLER_24_3
*568 FILLER_24_41
*569 FILLER_24_53
*570 FILLER_24_65
*571 FILLER_24_77
*572 FILLER_24_83
*573 FILLER_24_85
*574 FILLER_24_97
*575 FILLER_25_105
*576 FILLER_25_111
*577 FILLER_25_113
*578 FILLER_25_125
*579 FILLER_25_137
*580 FILLER_25_149
*581 FILLER_25_15
*582 FILLER_25_161
*583 FILLER_25_167
*584 FILLER_25_169
*585 FILLER_25_181
*586 FILLER_25_193
*587 FILLER_25_205
*588 FILLER_25_217
*589 FILLER_25_223
*590 FILLER_25_225
*591 FILLER_25_237
*592 FILLER_25_249
*593 FILLER_25_261
*594 FILLER_25_27
*595 FILLER_25_273
*596 FILLER_25_279
*597 FILLER_25_281
*598 FILLER_25_293
*599 FILLER_25_3
*600 FILLER_25_39
*601 FILLER_25_51
*602 FILLER_25_55
*603 FILLER_25_57
*604 FILLER_25_69
*605 FILLER_25_81
*606 FILLER_25_93
*607 FILLER_26_109
*608 FILLER_26_121
*609 FILLER_26_133
*610 FILLER_26_139
*611 FILLER_26_141
*612 FILLER_26_15
*613 FILLER_26_153
*614 FILLER_26_165
*615 FILLER_26_177
*616 FILLER_26_189
*617 FILLER_26_195
*618 FILLER_26_197
*619 FILLER_26_209
*620 FILLER_26_221
*621 FILLER_26_233
*622 FILLER_26_245
*623 FILLER_26_251
*624 FILLER_26_253
*625 FILLER_26_265
*626 FILLER_26_27
*627 FILLER_26_277
*628 FILLER_26_289
*629 FILLER_26_29
*630 FILLER_26_297
*631 FILLER_26_3
*632 FILLER_26_41
*633 FILLER_26_53
*634 FILLER_26_65
*635 FILLER_26_77
*636 FILLER_26_83
*637 FILLER_26_85
*638 FILLER_26_97
*639 FILLER_27_105
*640 FILLER_27_111
*641 FILLER_27_113
*642 FILLER_27_125
*643 FILLER_27_137
*644 FILLER_27_149
*645 FILLER_27_15
*646 FILLER_27_161
*647 FILLER_27_167
*648 FILLER_27_169
*649 FILLER_27_181
*650 FILLER_27_193
*651 FILLER_27_205
*652 FILLER_27_217
*653 FILLER_27_223
*654 FILLER_27_225
*655 FILLER_27_237
*656 FILLER_27_249
*657 FILLER_27_261
*658 FILLER_27_27
*659 FILLER_27_273
*660 FILLER_27_279
*661 FILLER_27_281
*662 FILLER_27_293
*663 FILLER_27_3
*664 FILLER_27_39
*665 FILLER_27_51
*666 FILLER_27_55
*667 FILLER_27_57
*668 FILLER_27_69
*669 FILLER_27_81
*670 FILLER_27_93
*671 FILLER_28_109
*672 FILLER_28_121
*673 FILLER_28_133
*674 FILLER_28_139
*675 FILLER_28_141
*676 FILLER_28_15
*677 FILLER_28_153
*678 FILLER_28_165
*679 FILLER_28_177
*680 FILLER_28_189
*681 FILLER_28_195
*682 FILLER_28_197
*683 FILLER_28_209
*684 FILLER_28_221
*685 FILLER_28_233
*686 FILLER_28_245
*687 FILLER_28_251
*688 FILLER_28_253
*689 FILLER_28_265
*690 FILLER_28_27
*691 FILLER_28_277
*692 FILLER_28_289
*693 FILLER_28_29
*694 FILLER_28_297
*695 FILLER_28_3
*696 FILLER_28_41
*697 FILLER_28_53
*698 FILLER_28_65
*699 FILLER_28_77
*700 FILLER_28_83
*701 FILLER_28_85
*702 FILLER_28_97
*703 FILLER_29_105
*704 FILLER_29_111
*705 FILLER_29_113
*706 FILLER_29_125
*707 FILLER_29_137
*708 FILLER_29_149
*709 FILLER_29_15
*710 FILLER_29_161
*711 FILLER_29_167
*712 FILLER_29_169
*713 FILLER_29_181
*714 FILLER_29_193
*715 FILLER_29_205
*716 FILLER_29_217
*717 FILLER_29_223
*718 FILLER_29_225
*719 FILLER_29_237
*720 FILLER_29_249
*721 FILLER_29_261
*722 FILLER_29_27
*723 FILLER_29_273
*724 FILLER_29_279
*725 FILLER_29_281
*726 FILLER_29_293
*727 FILLER_29_3
*728 FILLER_29_39
*729 FILLER_29_51
*730 FILLER_29_55
*731 FILLER_29_57
*732 FILLER_29_69
*733 FILLER_29_81
*734 FILLER_29_93
*735 FILLER_2_109
*736 FILLER_2_121
*737 FILLER_2_133
*738 FILLER_2_139
*739 FILLER_2_141
*740 FILLER_2_15
*741 FILLER_2_153
*742 FILLER_2_165
*743 FILLER_2_177
*744 FILLER_2_189
*745 FILLER_2_195
*746 FILLER_2_197
*747 FILLER_2_209
*748 FILLER_2_221
*749 FILLER_2_233
*750 FILLER_2_245
*751 FILLER_2_251
*752 FILLER_2_253
*753 FILLER_2_265
*754 FILLER_2_27
*755 FILLER_2_277
*756 FILLER_2_289
*757 FILLER_2_29
*758 FILLER_2_297
*759 FILLER_2_3
*760 FILLER_2_41
*761 FILLER_2_53
*762 FILLER_2_65
*763 FILLER_2_77
*764 FILLER_2_83
*765 FILLER_2_85
*766 FILLER_2_97
*767 FILLER_30_109
*768 FILLER_30_121
*769 FILLER_30_133
*770 FILLER_30_139
*771 FILLER_30_141
*772 FILLER_30_15
*773 FILLER_30_153
*774 FILLER_30_165
*775 FILLER_30_177
*776 FILLER_30_189
*777 FILLER_30_195
*778 FILLER_30_197
*779 FILLER_30_209
*780 FILLER_30_221
*781 FILLER_30_233
*782 FILLER_30_245
*783 FILLER_30_251
*784 FILLER_30_253
*785 FILLER_30_265
*786 FILLER_30_27
*787 FILLER_30_277
*788 FILLER_30_289
*789 FILLER_30_29
*790 FILLER_30_297
*791 FILLER_30_3
*792 FILLER_30_41
*793 FILLER_30_53
*794 FILLER_30_65
*795 FILLER_30_77
*796 FILLER_30_83
*797 FILLER_30_85
*798 FILLER_30_97
*799 FILLER_31_105
*800 FILLER_31_111
*801 FILLER_31_113
*802 FILLER_31_125
*803 FILLER_31_137
*804 FILLER_31_149
*805 FILLER_31_15
*806 FILLER_31_161
*807 FILLER_31_167
*808 FILLER_31_169
*809 FILLER_31_181
*810 FILLER_31_193
*811 FILLER_31_205
*812 FILLER_31_217
*813 FILLER_31_223
*814 FILLER_31_225
*815 FILLER_31_237
*816 FILLER_31_249
*817 FILLER_31_261
*818 FILLER_31_27
*819 FILLER_31_273
*820 FILLER_31_279
*821 FILLER_31_281
*822 FILLER_31_293
*823 FILLER_31_3
*824 FILLER_31_39
*825 FILLER_31_51
*826 FILLER_31_55
*827 FILLER_31_57
*828 FILLER_31_69
*829 FILLER_31_81
*830 FILLER_31_93
*831 FILLER_32_109
*832 FILLER_32_121
*833 FILLER_32_133
*834 FILLER_32_139
*835 FILLER_32_141
*836 FILLER_32_15
*837 FILLER_32_153
*838 FILLER_32_165
*839 FILLER_32_177
*840 FILLER_32_189
*841 FILLER_32_195
*842 FILLER_32_197
*843 FILLER_32_209
*844 FILLER_32_221
*845 FILLER_32_233
*846 FILLER_32_245
*847 FILLER_32_251
*848 FILLER_32_253
*849 FILLER_32_265
*850 FILLER_32_27
*851 FILLER_32_277
*852 FILLER_32_289
*853 FILLER_32_29
*854 FILLER_32_297
*855 FILLER_32_3
*856 FILLER_32_41
*857 FILLER_32_53
*858 FILLER_32_65
*859 FILLER_32_77
*860 FILLER_32_83
*861 FILLER_32_85
*862 FILLER_32_97
*863 FILLER_33_105
*864 FILLER_33_111
*865 FILLER_33_113
*866 FILLER_33_125
*867 FILLER_33_137
*868 FILLER_33_149
*869 FILLER_33_15
*870 FILLER_33_161
*871 FILLER_33_167
*872 FILLER_33_169
*873 FILLER_33_181
*874 FILLER_33_193
*875 FILLER_33_205
*876 FILLER_33_217
*877 FILLER_33_223
*878 FILLER_33_225
*879 FILLER_33_237
*880 FILLER_33_249
*881 FILLER_33_261
*882 FILLER_33_27
*883 FILLER_33_273
*884 FILLER_33_279
*885 FILLER_33_281
*886 FILLER_33_293
*887 FILLER_33_3
*888 FILLER_33_39
*889 FILLER_33_51
*890 FILLER_33_55
*891 FILLER_33_57
*892 FILLER_33_69
*893 FILLER_33_81
*894 FILLER_33_93
*895 FILLER_34_109
*896 FILLER_34_121
*897 FILLER_34_133
*898 FILLER_34_139
*899 FILLER_34_141
*900 FILLER_34_15
*901 FILLER_34_153
*902 FILLER_34_165
*903 FILLER_34_177
*904 FILLER_34_189
*905 FILLER_34_195
*906 FILLER_34_197
*907 FILLER_34_209
*908 FILLER_34_221
*909 FILLER_34_233
*910 FILLER_34_245
*911 FILLER_34_251
*912 FILLER_34_253
*913 FILLER_34_265
*914 FILLER_34_27
*915 FILLER_34_277
*916 FILLER_34_289
*917 FILLER_34_29
*918 FILLER_34_297
*919 FILLER_34_3
*920 FILLER_34_41
*921 FILLER_34_53
*922 FILLER_34_65
*923 FILLER_34_77
*924 FILLER_34_83
*925 FILLER_34_85
*926 FILLER_34_97
*927 FILLER_35_105
*928 FILLER_35_111
*929 FILLER_35_113
*930 FILLER_35_125
*931 FILLER_35_137
*932 FILLER_35_149
*933 FILLER_35_15
*934 FILLER_35_161
*935 FILLER_35_167
*936 FILLER_35_169
*937 FILLER_35_181
*938 FILLER_35_193
*939 FILLER_35_205
*940 FILLER_35_217
*941 FILLER_35_223
*942 FILLER_35_225
*943 FILLER_35_237
*944 FILLER_35_249
*945 FILLER_35_261
*946 FILLER_35_27
*947 FILLER_35_273
*948 FILLER_35_279
*949 FILLER_35_281
*950 FILLER_35_293
*951 FILLER_35_3
*952 FILLER_35_39
*953 FILLER_35_51
*954 FILLER_35_55
*955 FILLER_35_57
*956 FILLER_35_69
*957 FILLER_35_81
*958 FILLER_35_93
*959 FILLER_36_109
*960 FILLER_36_121
*961 FILLER_36_133
*962 FILLER_36_139
*963 FILLER_36_141
*964 FILLER_36_15
*965 FILLER_36_153
*966 FILLER_36_165
*967 FILLER_36_177
*968 FILLER_36_189
*969 FILLER_36_195
*970 FILLER_36_197
*971 FILLER_36_209
*972 FILLER_36_221
*973 FILLER_36_233
*974 FILLER_36_245
*975 FILLER_36_251
*976 FILLER_36_253
*977 FILLER_36_265
*978 FILLER_36_27
*979 FILLER_36_277
*980 FILLER_36_289
*981 FILLER_36_29
*982 FILLER_36_297
*983 FILLER_36_3
*984 FILLER_36_41
*985 FILLER_36_53
*986 FILLER_36_65
*987 FILLER_36_77
*988 FILLER_36_83
*989 FILLER_36_85
*990 FILLER_36_97
*991 FILLER_37_105
*992 FILLER_37_111
*993 FILLER_37_113
*994 FILLER_37_125
*995 FILLER_37_137
*996 FILLER_37_149
*997 FILLER_37_15
*998 FILLER_37_161
*999 FILLER_37_167
*1000 FILLER_37_169
*1001 FILLER_37_181
*1002 FILLER_37_193
*1003 FILLER_37_205
*1004 FILLER_37_217
*1005 FILLER_37_223
*1006 FILLER_37_225
*1007 FILLER_37_237
*1008 FILLER_37_249
*1009 FILLER_37_261
*1010 FILLER_37_27
*1011 FILLER_37_273
*1012 FILLER_37_279
*1013 FILLER_37_281
*1014 FILLER_37_293
*1015 FILLER_37_3
*1016 FILLER_37_39
*1017 FILLER_37_51
*1018 FILLER_37_55
*1019 FILLER_37_57
*1020 FILLER_37_69
*1021 FILLER_37_81
*1022 FILLER_37_93
*1023 FILLER_38_109
*1024 FILLER_38_121
*1025 FILLER_38_133
*1026 FILLER_38_139
*1027 FILLER_38_141
*1028 FILLER_38_15
*1029 FILLER_38_153
*1030 FILLER_38_165
*1031 FILLER_38_177
*1032 FILLER_38_189
*1033 FILLER_38_195
*1034 FILLER_38_197
*1035 FILLER_38_209
*1036 FILLER_38_221
*1037 FILLER_38_233
*1038 FILLER_38_245
*1039 FILLER_38_251
*1040 FILLER_38_253
*1041 FILLER_38_265
*1042 FILLER_38_27
*1043 FILLER_38_277
*1044 FILLER_38_289
*1045 FILLER_38_29
*1046 FILLER_38_297
*1047 FILLER_38_3
*1048 FILLER_38_41
*1049 FILLER_38_53
*1050 FILLER_38_65
*1051 FILLER_38_77
*1052 FILLER_38_83
*1053 FILLER_38_85
*1054 FILLER_38_97
*1055 FILLER_39_105
*1056 FILLER_39_111
*1057 FILLER_39_113
*1058 FILLER_39_125
*1059 FILLER_39_137
*1060 FILLER_39_149
*1061 FILLER_39_161
*1062 FILLER_39_167
*1063 FILLER_39_169
*1064 FILLER_39_18
*1065 FILLER_39_181
*1066 FILLER_39_193
*1067 FILLER_39_205
*1068 FILLER_39_217
*1069 FILLER_39_223
*1070 FILLER_39_225
*1071 FILLER_39_237
*1072 FILLER_39_249
*1073 FILLER_39_261
*1074 FILLER_39_273
*1075 FILLER_39_279
*1076 FILLER_39_281
*1077 FILLER_39_293
*1078 FILLER_39_30
*1079 FILLER_39_42
*1080 FILLER_39_54
*1081 FILLER_39_57
*1082 FILLER_39_6
*1083 FILLER_39_69
*1084 FILLER_39_81
*1085 FILLER_39_93
*1086 FILLER_3_105
*1087 FILLER_3_111
*1088 FILLER_3_113
*1089 FILLER_3_125
*1090 FILLER_3_137
*1091 FILLER_3_149
*1092 FILLER_3_15
*1093 FILLER_3_161
*1094 FILLER_3_167
*1095 FILLER_3_169
*1096 FILLER_3_181
*1097 FILLER_3_193
*1098 FILLER_3_205
*1099 FILLER_3_217
*1100 FILLER_3_223
*1101 FILLER_3_225
*1102 FILLER_3_237
*1103 FILLER_3_249
*1104 FILLER_3_261
*1105 FILLER_3_27
*1106 FILLER_3_273
*1107 FILLER_3_279
*1108 FILLER_3_281
*1109 FILLER_3_293
*1110 FILLER_3_3
*1111 FILLER_3_39
*1112 FILLER_3_51
*1113 FILLER_3_55
*1114 FILLER_3_57
*1115 FILLER_3_69
*1116 FILLER_3_81
*1117 FILLER_3_93
*1118 FILLER_40_109
*1119 FILLER_40_121
*1120 FILLER_40_133
*1121 FILLER_40_139
*1122 FILLER_40_141
*1123 FILLER_40_15
*1124 FILLER_40_153
*1125 FILLER_40_165
*1126 FILLER_40_177
*1127 FILLER_40_189
*1128 FILLER_40_195
*1129 FILLER_40_197
*1130 FILLER_40_209
*1131 FILLER_40_221
*1132 FILLER_40_233
*1133 FILLER_40_245
*1134 FILLER_40_251
*1135 FILLER_40_253
*1136 FILLER_40_265
*1137 FILLER_40_27
*1138 FILLER_40_277
*1139 FILLER_40_289
*1140 FILLER_40_29
*1141 FILLER_40_297
*1142 FILLER_40_3
*1143 FILLER_40_41
*1144 FILLER_40_53
*1145 FILLER_40_65
*1146 FILLER_40_77
*1147 FILLER_40_83
*1148 FILLER_40_85
*1149 FILLER_40_97
*1150 FILLER_41_105
*1151 FILLER_41_111
*1152 FILLER_41_113
*1153 FILLER_41_125
*1154 FILLER_41_137
*1155 FILLER_41_149
*1156 FILLER_41_15
*1157 FILLER_41_161
*1158 FILLER_41_167
*1159 FILLER_41_169
*1160 FILLER_41_181
*1161 FILLER_41_193
*1162 FILLER_41_205
*1163 FILLER_41_217
*1164 FILLER_41_223
*1165 FILLER_41_225
*1166 FILLER_41_237
*1167 FILLER_41_249
*1168 FILLER_41_261
*1169 FILLER_41_27
*1170 FILLER_41_273
*1171 FILLER_41_279
*1172 FILLER_41_281
*1173 FILLER_41_293
*1174 FILLER_41_3
*1175 FILLER_41_39
*1176 FILLER_41_51
*1177 FILLER_41_55
*1178 FILLER_41_57
*1179 FILLER_41_69
*1180 FILLER_41_81
*1181 FILLER_41_93
*1182 FILLER_42_109
*1183 FILLER_42_121
*1184 FILLER_42_133
*1185 FILLER_42_139
*1186 FILLER_42_141
*1187 FILLER_42_153
*1188 FILLER_42_165
*1189 FILLER_42_177
*1190 FILLER_42_18
*1191 FILLER_42_189
*1192 FILLER_42_195
*1193 FILLER_42_197
*1194 FILLER_42_209
*1195 FILLER_42_221
*1196 FILLER_42_233
*1197 FILLER_42_245
*1198 FILLER_42_251
*1199 FILLER_42_253
*1200 FILLER_42_26
*1201 FILLER_42_265
*1202 FILLER_42_277
*1203 FILLER_42_289
*1204 FILLER_42_29
*1205 FILLER_42_297
*1206 FILLER_42_41
*1207 FILLER_42_53
*1208 FILLER_42_6
*1209 FILLER_42_65
*1210 FILLER_42_77
*1211 FILLER_42_83
*1212 FILLER_42_85
*1213 FILLER_42_97
*1214 FILLER_43_105
*1215 FILLER_43_111
*1216 FILLER_43_113
*1217 FILLER_43_125
*1218 FILLER_43_137
*1219 FILLER_43_149
*1220 FILLER_43_15
*1221 FILLER_43_161
*1222 FILLER_43_167
*1223 FILLER_43_169
*1224 FILLER_43_181
*1225 FILLER_43_193
*1226 FILLER_43_205
*1227 FILLER_43_217
*1228 FILLER_43_223
*1229 FILLER_43_225
*1230 FILLER_43_237
*1231 FILLER_43_249
*1232 FILLER_43_261
*1233 FILLER_43_27
*1234 FILLER_43_273
*1235 FILLER_43_279
*1236 FILLER_43_281
*1237 FILLER_43_293
*1238 FILLER_43_3
*1239 FILLER_43_39
*1240 FILLER_43_51
*1241 FILLER_43_55
*1242 FILLER_43_57
*1243 FILLER_43_69
*1244 FILLER_43_81
*1245 FILLER_43_93
*1246 FILLER_44_109
*1247 FILLER_44_121
*1248 FILLER_44_133
*1249 FILLER_44_139
*1250 FILLER_44_141
*1251 FILLER_44_15
*1252 FILLER_44_153
*1253 FILLER_44_165
*1254 FILLER_44_177
*1255 FILLER_44_189
*1256 FILLER_44_195
*1257 FILLER_44_197
*1258 FILLER_44_209
*1259 FILLER_44_221
*1260 FILLER_44_233
*1261 FILLER_44_245
*1262 FILLER_44_251
*1263 FILLER_44_253
*1264 FILLER_44_265
*1265 FILLER_44_27
*1266 FILLER_44_277
*1267 FILLER_44_289
*1268 FILLER_44_29
*1269 FILLER_44_297
*1270 FILLER_44_3
*1271 FILLER_44_41
*1272 FILLER_44_53
*1273 FILLER_44_65
*1274 FILLER_44_77
*1275 FILLER_44_83
*1276 FILLER_44_85
*1277 FILLER_44_97
*1278 FILLER_45_105
*1279 FILLER_45_111
*1280 FILLER_45_113
*1281 FILLER_45_125
*1282 FILLER_45_137
*1283 FILLER_45_149
*1284 FILLER_45_15
*1285 FILLER_45_161
*1286 FILLER_45_167
*1287 FILLER_45_169
*1288 FILLER_45_181
*1289 FILLER_45_193
*1290 FILLER_45_205
*1291 FILLER_45_217
*1292 FILLER_45_223
*1293 FILLER_45_225
*1294 FILLER_45_237
*1295 FILLER_45_249
*1296 FILLER_45_261
*1297 FILLER_45_27
*1298 FILLER_45_273
*1299 FILLER_45_279
*1300 FILLER_45_281
*1301 FILLER_45_293
*1302 FILLER_45_3
*1303 FILLER_45_39
*1304 FILLER_45_51
*1305 FILLER_45_55
*1306 FILLER_45_57
*1307 FILLER_45_69
*1308 FILLER_45_81
*1309 FILLER_45_93
*1310 FILLER_46_109
*1311 FILLER_46_121
*1312 FILLER_46_133
*1313 FILLER_46_139
*1314 FILLER_46_141
*1315 FILLER_46_153
*1316 FILLER_46_165
*1317 FILLER_46_177
*1318 FILLER_46_18
*1319 FILLER_46_189
*1320 FILLER_46_195
*1321 FILLER_46_197
*1322 FILLER_46_209
*1323 FILLER_46_221
*1324 FILLER_46_233
*1325 FILLER_46_245
*1326 FILLER_46_251
*1327 FILLER_46_253
*1328 FILLER_46_26
*1329 FILLER_46_265
*1330 FILLER_46_277
*1331 FILLER_46_289
*1332 FILLER_46_29
*1333 FILLER_46_297
*1334 FILLER_46_41
*1335 FILLER_46_53
*1336 FILLER_46_6
*1337 FILLER_46_65
*1338 FILLER_46_77
*1339 FILLER_46_83
*1340 FILLER_46_85
*1341 FILLER_46_97
*1342 FILLER_47_105
*1343 FILLER_47_111
*1344 FILLER_47_113
*1345 FILLER_47_125
*1346 FILLER_47_137
*1347 FILLER_47_149
*1348 FILLER_47_15
*1349 FILLER_47_161
*1350 FILLER_47_167
*1351 FILLER_47_169
*1352 FILLER_47_181
*1353 FILLER_47_193
*1354 FILLER_47_205
*1355 FILLER_47_217
*1356 FILLER_47_223
*1357 FILLER_47_225
*1358 FILLER_47_237
*1359 FILLER_47_249
*1360 FILLER_47_261
*1361 FILLER_47_27
*1362 FILLER_47_273
*1363 FILLER_47_279
*1364 FILLER_47_281
*1365 FILLER_47_293
*1366 FILLER_47_3
*1367 FILLER_47_39
*1368 FILLER_47_51
*1369 FILLER_47_55
*1370 FILLER_47_57
*1371 FILLER_47_69
*1372 FILLER_47_81
*1373 FILLER_47_93
*1374 FILLER_48_109
*1375 FILLER_48_121
*1376 FILLER_48_133
*1377 FILLER_48_139
*1378 FILLER_48_141
*1379 FILLER_48_15
*1380 FILLER_48_153
*1381 FILLER_48_165
*1382 FILLER_48_177
*1383 FILLER_48_189
*1384 FILLER_48_195
*1385 FILLER_48_197
*1386 FILLER_48_209
*1387 FILLER_48_221
*1388 FILLER_48_233
*1389 FILLER_48_245
*1390 FILLER_48_251
*1391 FILLER_48_253
*1392 FILLER_48_265
*1393 FILLER_48_27
*1394 FILLER_48_277
*1395 FILLER_48_289
*1396 FILLER_48_29
*1397 FILLER_48_297
*1398 FILLER_48_3
*1399 FILLER_48_41
*1400 FILLER_48_53
*1401 FILLER_48_65
*1402 FILLER_48_77
*1403 FILLER_48_83
*1404 FILLER_48_85
*1405 FILLER_48_97
*1406 FILLER_49_105
*1407 FILLER_49_111
*1408 FILLER_49_113
*1409 FILLER_49_125
*1410 FILLER_49_137
*1411 FILLER_49_149
*1412 FILLER_49_15
*1413 FILLER_49_161
*1414 FILLER_49_167
*1415 FILLER_49_169
*1416 FILLER_49_181
*1417 FILLER_49_193
*1418 FILLER_49_205
*1419 FILLER_49_217
*1420 FILLER_49_223
*1421 FILLER_49_225
*1422 FILLER_49_237
*1423 FILLER_49_249
*1424 FILLER_49_261
*1425 FILLER_49_27
*1426 FILLER_49_273
*1427 FILLER_49_279
*1428 FILLER_49_281
*1429 FILLER_49_293
*1430 FILLER_49_3
*1431 FILLER_49_39
*1432 FILLER_49_51
*1433 FILLER_49_55
*1434 FILLER_49_57
*1435 FILLER_49_69
*1436 FILLER_49_81
*1437 FILLER_49_93
*1438 FILLER_4_109
*1439 FILLER_4_121
*1440 FILLER_4_133
*1441 FILLER_4_139
*1442 FILLER_4_141
*1443 FILLER_4_15
*1444 FILLER_4_153
*1445 FILLER_4_165
*1446 FILLER_4_177
*1447 FILLER_4_189
*1448 FILLER_4_195
*1449 FILLER_4_197
*1450 FILLER_4_209
*1451 FILLER_4_221
*1452 FILLER_4_233
*1453 FILLER_4_245
*1454 FILLER_4_251
*1455 FILLER_4_253
*1456 FILLER_4_265
*1457 FILLER_4_27
*1458 FILLER_4_277
*1459 FILLER_4_289
*1460 FILLER_4_29
*1461 FILLER_4_297
*1462 FILLER_4_3
*1463 FILLER_4_41
*1464 FILLER_4_53
*1465 FILLER_4_65
*1466 FILLER_4_77
*1467 FILLER_4_83
*1468 FILLER_4_85
*1469 FILLER_4_97
*1470 FILLER_50_109
*1471 FILLER_50_121
*1472 FILLER_50_133
*1473 FILLER_50_139
*1474 FILLER_50_141
*1475 FILLER_50_153
*1476 FILLER_50_165
*1477 FILLER_50_177
*1478 FILLER_50_18
*1479 FILLER_50_189
*1480 FILLER_50_195
*1481 FILLER_50_197
*1482 FILLER_50_209
*1483 FILLER_50_221
*1484 FILLER_50_233
*1485 FILLER_50_245
*1486 FILLER_50_251
*1487 FILLER_50_253
*1488 FILLER_50_26
*1489 FILLER_50_265
*1490 FILLER_50_277
*1491 FILLER_50_289
*1492 FILLER_50_29
*1493 FILLER_50_297
*1494 FILLER_50_41
*1495 FILLER_50_53
*1496 FILLER_50_6
*1497 FILLER_50_65
*1498 FILLER_50_77
*1499 FILLER_50_83
*1500 FILLER_50_85
*1501 FILLER_50_97
*1502 FILLER_51_105
*1503 FILLER_51_111
*1504 FILLER_51_113
*1505 FILLER_51_125
*1506 FILLER_51_137
*1507 FILLER_51_149
*1508 FILLER_51_15
*1509 FILLER_51_161
*1510 FILLER_51_167
*1511 FILLER_51_169
*1512 FILLER_51_181
*1513 FILLER_51_193
*1514 FILLER_51_205
*1515 FILLER_51_217
*1516 FILLER_51_223
*1517 FILLER_51_225
*1518 FILLER_51_237
*1519 FILLER_51_249
*1520 FILLER_51_261
*1521 FILLER_51_27
*1522 FILLER_51_273
*1523 FILLER_51_279
*1524 FILLER_51_281
*1525 FILLER_51_293
*1526 FILLER_51_3
*1527 FILLER_51_39
*1528 FILLER_51_51
*1529 FILLER_51_55
*1530 FILLER_51_57
*1531 FILLER_51_69
*1532 FILLER_51_81
*1533 FILLER_51_93
*1534 FILLER_52_109
*1535 FILLER_52_121
*1536 FILLER_52_133
*1537 FILLER_52_139
*1538 FILLER_52_141
*1539 FILLER_52_15
*1540 FILLER_52_153
*1541 FILLER_52_165
*1542 FILLER_52_177
*1543 FILLER_52_189
*1544 FILLER_52_195
*1545 FILLER_52_197
*1546 FILLER_52_209
*1547 FILLER_52_221
*1548 FILLER_52_233
*1549 FILLER_52_245
*1550 FILLER_52_251
*1551 FILLER_52_253
*1552 FILLER_52_265
*1553 FILLER_52_27
*1554 FILLER_52_277
*1555 FILLER_52_289
*1556 FILLER_52_29
*1557 FILLER_52_297
*1558 FILLER_52_3
*1559 FILLER_52_41
*1560 FILLER_52_53
*1561 FILLER_52_65
*1562 FILLER_52_77
*1563 FILLER_52_83
*1564 FILLER_52_85
*1565 FILLER_52_97
*1566 FILLER_53_105
*1567 FILLER_53_111
*1568 FILLER_53_113
*1569 FILLER_53_125
*1570 FILLER_53_137
*1571 FILLER_53_149
*1572 FILLER_53_15
*1573 FILLER_53_161
*1574 FILLER_53_167
*1575 FILLER_53_169
*1576 FILLER_53_181
*1577 FILLER_53_193
*1578 FILLER_53_205
*1579 FILLER_53_217
*1580 FILLER_53_223
*1581 FILLER_53_225
*1582 FILLER_53_237