*SPEF "ieee 1481-1999"
*DESIGN "azdle_binary_clock"
*DATE "11:11:11 Fri 11 11, 1111"
*VENDOR "OpenRCX"
*PROGRAM "Parallel Extraction"
*VERSION "1.0"
*DESIGN_FLOW "NAME_SCOPE LOCAL" "PIN_CAP NONE"
*DIVIDER /
*DELIMITER :
*BUS_DELIMITER []
*T_UNIT 1 NS
*C_UNIT 1 PF
*R_UNIT 1 OHM
*L_UNIT 1 HENRY

*NAME_MAP
*1 io_in[0]
*2 io_in[1]
*3 io_in[2]
*4 io_in[3]
*5 io_in[4]
*6 io_in[5]
*7 io_in[6]
*8 io_in[7]
*9 io_out[0]
*10 io_out[1]
*11 io_out[2]
*12 io_out[3]
*13 io_out[4]
*14 io_out[5]
*15 io_out[6]
*16 net8
*19 _000_
*20 _001_
*21 _002_
*22 _003_
*23 _004_
*24 _005_
*25 _006_
*26 _007_
*27 _008_
*28 _009_
*29 _010_
*30 _011_
*31 _012_
*32 _013_
*33 _014_
*34 _015_
*35 _016_
*36 _017_
*37 _018_
*38 _019_
*39 _020_
*40 _021_
*41 _022_
*42 _023_
*43 _024_
*44 _025_
*45 _026_
*46 _027_
*47 _028_
*48 _029_
*49 _030_
*50 _031_
*51 _032_
*52 _033_
*53 _034_
*54 _035_
*55 _036_
*56 _037_
*57 _038_
*58 _039_
*59 _040_
*60 _041_
*61 _042_
*62 _043_
*63 _044_
*64 _045_
*65 _046_
*66 _047_
*67 _048_
*68 _049_
*69 _050_
*70 _051_
*71 _052_
*72 _053_
*73 _054_
*74 _055_
*75 _056_
*76 _057_
*77 _058_
*78 _059_
*79 _060_
*80 _061_
*81 _062_
*82 _063_
*83 _064_
*84 _065_
*85 _066_
*86 _067_
*87 _068_
*88 _069_
*89 _070_
*90 _071_
*91 _072_
*92 _073_
*93 _074_
*94 _075_
*95 _076_
*96 _077_
*97 _078_
*98 _079_
*99 _080_
*100 _081_
*101 _082_
*102 _083_
*103 _084_
*104 _085_
*105 _086_
*106 _087_
*107 _088_
*108 _089_
*109 _090_
*110 _091_
*111 _092_
*112 _093_
*113 _094_
*114 _095_
*115 _096_
*116 _097_
*117 _098_
*118 _099_
*119 _100_
*120 _101_
*121 _102_
*122 _103_
*123 _104_
*124 _105_
*125 _106_
*126 _107_
*127 _108_
*128 _109_
*129 _110_
*130 _111_
*131 _112_
*132 _113_
*133 _114_
*134 _115_
*135 _116_
*136 _117_
*137 _118_
*138 _119_
*139 _120_
*140 _121_
*141 _122_
*142 _123_
*143 _124_
*144 _125_
*145 _126_
*146 _127_
*147 _128_
*148 _129_
*149 _130_
*150 _131_
*151 _132_
*152 _133_
*153 _134_
*154 _135_
*155 _136_
*156 _137_
*157 _138_
*158 _139_
*159 _140_
*160 _141_
*161 _142_
*162 _143_
*163 _144_
*164 _145_
*165 _146_
*166 _147_
*167 _148_
*168 _149_
*169 _150_
*170 _151_
*171 _152_
*172 c\.cd\.hclk
*173 c\.centiseconds\[0\]
*174 c\.centiseconds\[1\]
*175 c\.centiseconds\[2\]
*176 c\.centiseconds\[3\]
*177 c\.centiseconds\[4\]
*178 c\.centiseconds\[5\]
*179 c\.centiseconds\[6\]
*180 c\.h_cnt\.cnt\[0\]
*181 c\.h_cnt\.cnt\[1\]
*182 c\.h_cnt\.cnt\[2\]
*183 c\.h_cnt\.cnt\[3\]
*184 c\.h_cnt\.cnt\[4\]
*185 c\.h_cnt\.newtick
*186 c\.h_cnt\.tick
*187 c\.m_cnt\.cnt\[0\]
*188 c\.m_cnt\.cnt\[1\]
*189 c\.m_cnt\.cnt\[2\]
*190 c\.m_cnt\.cnt\[3\]
*191 c\.m_cnt\.cnt\[4\]
*192 c\.m_cnt\.cnt\[5\]
*193 c\.m_cnt\.newtick
*194 c\.m_cnt\.tick
*195 c\.ms_cnt\.newtick
*196 c\.ms_cnt\.roll
*197 c\.pps_latch
*198 c\.s_cnt\.cnt\[0\]
*199 c\.s_cnt\.cnt\[1\]
*200 c\.s_cnt\.cnt\[2\]
*201 c\.s_cnt\.cnt\[3\]
*202 c\.s_cnt\.cnt\[4\]
*203 c\.s_cnt\.cnt\[5\]
*204 c\.s_cnt\.newtick
*205 clknet_0_io_in[0]
*206 clknet_2_0__leaf_io_in[0]
*207 clknet_2_1__leaf_io_in[0]
*208 clknet_2_2__leaf_io_in[0]
*209 clknet_2_3__leaf_io_in[0]
*210 disp\.pins\[4\]
*211 disp\.pins\[5\]
*212 disp\.pins\[6\]
*213 net1
*214 net2
*215 net3
*216 net4
*217 net5
*218 net6
*219 net7
*220 FILLER_0_109
*221 FILLER_0_113
*222 FILLER_0_125
*223 FILLER_0_137
*224 FILLER_0_141
*225 FILLER_0_15
*226 FILLER_0_153
*227 FILLER_0_165
*228 FILLER_0_169
*229 FILLER_0_181
*230 FILLER_0_193
*231 FILLER_0_197
*232 FILLER_0_209
*233 FILLER_0_221
*234 FILLER_0_225
*235 FILLER_0_237
*236 FILLER_0_249
*237 FILLER_0_253
*238 FILLER_0_265
*239 FILLER_0_27
*240 FILLER_0_277
*241 FILLER_0_281
*242 FILLER_0_293
*243 FILLER_0_3
*244 FILLER_0_45
*245 FILLER_0_52
*246 FILLER_0_57
*247 FILLER_0_69
*248 FILLER_0_81
*249 FILLER_0_85
*250 FILLER_0_97
*251 FILLER_10_109
*252 FILLER_10_121
*253 FILLER_10_133
*254 FILLER_10_139
*255 FILLER_10_141
*256 FILLER_10_15
*257 FILLER_10_153
*258 FILLER_10_165
*259 FILLER_10_177
*260 FILLER_10_189
*261 FILLER_10_195
*262 FILLER_10_197
*263 FILLER_10_209
*264 FILLER_10_22
*265 FILLER_10_221
*266 FILLER_10_233
*267 FILLER_10_245
*268 FILLER_10_251
*269 FILLER_10_253
*270 FILLER_10_265
*271 FILLER_10_277
*272 FILLER_10_289
*273 FILLER_10_297
*274 FILLER_10_3
*275 FILLER_10_45
*276 FILLER_10_49
*277 FILLER_10_53
*278 FILLER_10_73
*279 FILLER_10_81
*280 FILLER_10_85
*281 FILLER_10_97
*282 FILLER_11_101
*283 FILLER_11_109
*284 FILLER_11_113
*285 FILLER_11_125
*286 FILLER_11_137
*287 FILLER_11_149
*288 FILLER_11_161
*289 FILLER_11_167
*290 FILLER_11_169
*291 FILLER_11_181
*292 FILLER_11_193
*293 FILLER_11_205
*294 FILLER_11_21
*295 FILLER_11_217
*296 FILLER_11_223
*297 FILLER_11_225
*298 FILLER_11_237
*299 FILLER_11_249
*300 FILLER_11_261
*301 FILLER_11_27
*302 FILLER_11_273
*303 FILLER_11_279
*304 FILLER_11_281
*305 FILLER_11_293
*306 FILLER_11_3
*307 FILLER_11_36
*308 FILLER_11_43
*309 FILLER_11_52
*310 FILLER_11_57
*311 FILLER_11_77
*312 FILLER_11_89
*313 FILLER_12_109
*314 FILLER_12_11
*315 FILLER_12_121
*316 FILLER_12_133
*317 FILLER_12_139
*318 FILLER_12_141
*319 FILLER_12_153
*320 FILLER_12_165
*321 FILLER_12_177
*322 FILLER_12_189
*323 FILLER_12_19
*324 FILLER_12_195
*325 FILLER_12_197
*326 FILLER_12_209
*327 FILLER_12_221
*328 FILLER_12_233
*329 FILLER_12_245
*330 FILLER_12_251
*331 FILLER_12_253
*332 FILLER_12_265
*333 FILLER_12_27
*334 FILLER_12_277
*335 FILLER_12_289
*336 FILLER_12_297
*337 FILLER_12_3
*338 FILLER_12_32
*339 FILLER_12_44
*340 FILLER_12_59
*341 FILLER_12_66
*342 FILLER_12_78
*343 FILLER_12_85
*344 FILLER_12_97
*345 FILLER_13_111
*346 FILLER_13_113
*347 FILLER_13_125
*348 FILLER_13_137
*349 FILLER_13_149
*350 FILLER_13_161
*351 FILLER_13_167
*352 FILLER_13_169
*353 FILLER_13_181
*354 FILLER_13_193
*355 FILLER_13_205
*356 FILLER_13_217
*357 FILLER_13_223
*358 FILLER_13_225
*359 FILLER_13_23
*360 FILLER_13_237
*361 FILLER_13_249
*362 FILLER_13_261
*363 FILLER_13_273
*364 FILLER_13_279
*365 FILLER_13_281
*366 FILLER_13_293
*367 FILLER_13_3
*368 FILLER_13_43
*369 FILLER_13_52
*370 FILLER_13_63
*371 FILLER_13_75
*372 FILLER_13_87
*373 FILLER_13_99
*374 FILLER_14_10
*375 FILLER_14_109
*376 FILLER_14_121
*377 FILLER_14_133
*378 FILLER_14_139
*379 FILLER_14_141
*380 FILLER_14_153
*381 FILLER_14_165
*382 FILLER_14_177
*383 FILLER_14_189
*384 FILLER_14_19
*385 FILLER_14_195
*386 FILLER_14_197
*387 FILLER_14_209
*388 FILLER_14_221
*389 FILLER_14_233
*390 FILLER_14_245
*391 FILLER_14_251
*392 FILLER_14_253
*393 FILLER_14_265
*394 FILLER_14_27
*395 FILLER_14_277
*396 FILLER_14_289
*397 FILLER_14_29
*398 FILLER_14_297
*399 FILLER_14_3
*400 FILLER_14_38
*401 FILLER_14_49
*402 FILLER_14_53
*403 FILLER_14_60
*404 FILLER_14_80
*405 FILLER_14_85
*406 FILLER_14_97
*407 FILLER_15_100
*408 FILLER_15_113
*409 FILLER_15_125
*410 FILLER_15_137
*411 FILLER_15_149
*412 FILLER_15_161
*413 FILLER_15_167
*414 FILLER_15_169
*415 FILLER_15_181
*416 FILLER_15_193
*417 FILLER_15_20
*418 FILLER_15_205
*419 FILLER_15_217
*420 FILLER_15_223
*421 FILLER_15_225
*422 FILLER_15_237
*423 FILLER_15_249
*424 FILLER_15_261
*425 FILLER_15_27
*426 FILLER_15_273
*427 FILLER_15_279
*428 FILLER_15_281
*429 FILLER_15_293
*430 FILLER_15_3
*431 FILLER_15_39
*432 FILLER_15_52
*433 FILLER_15_64
*434 FILLER_15_73
*435 FILLER_15_81
*436 FILLER_15_88
*437 FILLER_16_100
*438 FILLER_16_11
*439 FILLER_16_112
*440 FILLER_16_124
*441 FILLER_16_136
*442 FILLER_16_141
*443 FILLER_16_153
*444 FILLER_16_165
*445 FILLER_16_177
*446 FILLER_16_189
*447 FILLER_16_195
*448 FILLER_16_197
*449 FILLER_16_209
*450 FILLER_16_21
*451 FILLER_16_221
*452 FILLER_16_233
*453 FILLER_16_245
*454 FILLER_16_251
*455 FILLER_16_253
*456 FILLER_16_265
*457 FILLER_16_27
*458 FILLER_16_277
*459 FILLER_16_289
*460 FILLER_16_297
*461 FILLER_16_3
*462 FILLER_16_45
*463 FILLER_16_56
*464 FILLER_16_65
*465 FILLER_16_74
*466 FILLER_16_82
*467 FILLER_16_88
*468 FILLER_17_100
*469 FILLER_17_113
*470 FILLER_17_12
*471 FILLER_17_125
*472 FILLER_17_137
*473 FILLER_17_149
*474 FILLER_17_161
*475 FILLER_17_167
*476 FILLER_17_169
*477 FILLER_17_181
*478 FILLER_17_19
*479 FILLER_17_193
*480 FILLER_17_205
*481 FILLER_17_217
*482 FILLER_17_223
*483 FILLER_17_225
*484 FILLER_17_237
*485 FILLER_17_249
*486 FILLER_17_26
*487 FILLER_17_261
*488 FILLER_17_273
*489 FILLER_17_279
*490 FILLER_17_281
*491 FILLER_17_293
*492 FILLER_17_3
*493 FILLER_17_38
*494 FILLER_17_52
*495 FILLER_17_64
*496 FILLER_17_72
*497 FILLER_17_80
*498 FILLER_17_88
*499 FILLER_18_10
*500 FILLER_18_109
*501 FILLER_18_121
*502 FILLER_18_133
*503 FILLER_18_139
*504 FILLER_18_141
*505 FILLER_18_153
*506 FILLER_18_165
*507 FILLER_18_177
*508 FILLER_18_18
*509 FILLER_18_189
*510 FILLER_18_195
*511 FILLER_18_197
*512 FILLER_18_209
*513 FILLER_18_221
*514 FILLER_18_233
*515 FILLER_18_245
*516 FILLER_18_251
*517 FILLER_18_253
*518 FILLER_18_26
*519 FILLER_18_265
*520 FILLER_18_277
*521 FILLER_18_289
*522 FILLER_18_297
*523 FILLER_18_3
*524 FILLER_18_32
*525 FILLER_18_36
*526 FILLER_18_57
*527 FILLER_18_71
*528 FILLER_18_79
*529 FILLER_18_83
*530 FILLER_18_85
*531 FILLER_18_97
*532 FILLER_19_103
*533 FILLER_19_111
*534 FILLER_19_113
*535 FILLER_19_125
*536 FILLER_19_137
*537 FILLER_19_149
*538 FILLER_19_161
*539 FILLER_19_167
*540 FILLER_19_169
*541 FILLER_19_17
*542 FILLER_19_181
*543 FILLER_19_193
*544 FILLER_19_205
*545 FILLER_19_217
*546 FILLER_19_223
*547 FILLER_19_225
*548 FILLER_19_237
*549 FILLER_19_249
*550 FILLER_19_25
*551 FILLER_19_261
*552 FILLER_19_273
*553 FILLER_19_279
*554 FILLER_19_281
*555 FILLER_19_293
*556 FILLER_19_31
*557 FILLER_19_42
*558 FILLER_19_52
*559 FILLER_19_6
*560 FILLER_19_67
*561 FILLER_19_79
*562 FILLER_19_91
*563 FILLER_1_105
*564 FILLER_1_111
*565 FILLER_1_113
*566 FILLER_1_125
*567 FILLER_1_137
*568 FILLER_1_149
*569 FILLER_1_161
*570 FILLER_1_167
*571 FILLER_1_169
*572 FILLER_1_181
*573 FILLER_1_193
*574 FILLER_1_205
*575 FILLER_1_217
*576 FILLER_1_223
*577 FILLER_1_225
*578 FILLER_1_237
*579 FILLER_1_249
*580 FILLER_1_261
*581 FILLER_1_273
*582 FILLER_1_279
*583 FILLER_1_281
*584 FILLER_1_293
*585 FILLER_1_3
*586 FILLER_1_31
*587 FILLER_1_35
*588 FILLER_1_52
*589 FILLER_1_57
*590 FILLER_1_69
*591 FILLER_1_81
*592 FILLER_1_93
*593 FILLER_20_109
*594 FILLER_20_121
*595 FILLER_20_133
*596 FILLER_20_139
*597 FILLER_20_141
*598 FILLER_20_153
*599 FILLER_20_165
*600 FILLER_20_177
*601 FILLER_20_189
*602 FILLER_20_195
*603 FILLER_20_197
*604 FILLER_20_209
*605 FILLER_20_221
*606 FILLER_20_233
*607 FILLER_20_24
*608 FILLER_20_245
*609 FILLER_20_251
*610 FILLER_20_253
*611 FILLER_20_265
*612 FILLER_20_277
*613 FILLER_20_289
*614 FILLER_20_297
*615 FILLER_20_3
*616 FILLER_20_32
*617 FILLER_20_52
*618 FILLER_20_56
*619 FILLER_20_7
*620 FILLER_20_73
*621 FILLER_20_80
*622 FILLER_20_85
*623 FILLER_20_97
*624 FILLER_21_104
*625 FILLER_21_113
*626 FILLER_21_12
*627 FILLER_21_125
*628 FILLER_21_137
*629 FILLER_21_149
*630 FILLER_21_161
*631 FILLER_21_167
*632 FILLER_21_169
*633 FILLER_21_181
*634 FILLER_21_193
*635 FILLER_21_205
*636 FILLER_21_217
*637 FILLER_21_223
*638 FILLER_21_225
*639 FILLER_21_237
*640 FILLER_21_249
*641 FILLER_21_261
*642 FILLER_21_273
*643 FILLER_21_279
*644 FILLER_21_281
*645 FILLER_21_293
*646 FILLER_21_3
*647 FILLER_21_36
*648 FILLER_21_44
*649 FILLER_21_48
*650 FILLER_21_52
*651 FILLER_21_60
*652 FILLER_21_64
*653 FILLER_21_81
*654 FILLER_21_92
*655 FILLER_22_109
*656 FILLER_22_121
*657 FILLER_22_133
*658 FILLER_22_139
*659 FILLER_22_141
*660 FILLER_22_153
*661 FILLER_22_165
*662 FILLER_22_177
*663 FILLER_22_189
*664 FILLER_22_19
*665 FILLER_22_195
*666 FILLER_22_197
*667 FILLER_22_209
*668 FILLER_22_221
*669 FILLER_22_233
*670 FILLER_22_245
*671 FILLER_22_251
*672 FILLER_22_253
*673 FILLER_22_265
*674 FILLER_22_27
*675 FILLER_22_277
*676 FILLER_22_289
*677 FILLER_22_297
*678 FILLER_22_3
*679 FILLER_22_35
*680 FILLER_22_43
*681 FILLER_22_65
*682 FILLER_22_77
*683 FILLER_22_83
*684 FILLER_22_85
*685 FILLER_22_97
*686 FILLER_23_100
*687 FILLER_23_113
*688 FILLER_23_125
*689 FILLER_23_137
*690 FILLER_23_149
*691 FILLER_23_161
*692 FILLER_23_167
*693 FILLER_23_169
*694 FILLER_23_181
*695 FILLER_23_193
*696 FILLER_23_205
*697 FILLER_23_217
*698 FILLER_23_223
*699 FILLER_23_225
*700 FILLER_23_237
*701 FILLER_23_249
*702 FILLER_23_25
*703 FILLER_23_261
*704 FILLER_23_273
*705 FILLER_23_279
*706 FILLER_23_281
*707 FILLER_23_293
*708 FILLER_23_3
*709 FILLER_23_32
*710 FILLER_23_52
*711 FILLER_23_64
*712 FILLER_23_76
*713 FILLER_23_88
*714 FILLER_24_109
*715 FILLER_24_12
*716 FILLER_24_121
*717 FILLER_24_133
*718 FILLER_24_139
*719 FILLER_24_141
*720 FILLER_24_153
*721 FILLER_24_165
*722 FILLER_24_177
*723 FILLER_24_189
*724 FILLER_24_195
*725 FILLER_24_197
*726 FILLER_24_209
*727 FILLER_24_221
*728 FILLER_24_233
*729 FILLER_24_24
*730 FILLER_24_245
*731 FILLER_24_251
*732 FILLER_24_253
*733 FILLER_24_265
*734 FILLER_24_277
*735 FILLER_24_289
*736 FILLER_24_297
*737 FILLER_24_3
*738 FILLER_24_34
*739 FILLER_24_43
*740 FILLER_24_67
*741 FILLER_24_79
*742 FILLER_24_83
*743 FILLER_24_85
*744 FILLER_24_97
*745 FILLER_25_105
*746 FILLER_25_111
*747 FILLER_25_113
*748 FILLER_25_125
*749 FILLER_25_137
*750 FILLER_25_149
*751 FILLER_25_161
*752 FILLER_25_167
*753 FILLER_25_169
*754 FILLER_25_181
*755 FILLER_25_19
*756 FILLER_25_193
*757 FILLER_25_205
*758 FILLER_25_217
*759 FILLER_25_223
*760 FILLER_25_225
*761 FILLER_25_237
*762 FILLER_25_249
*763 FILLER_25_261
*764 FILLER_25_273
*765 FILLER_25_279
*766 FILLER_25_28
*767 FILLER_25_281
*768 FILLER_25_293
*769 FILLER_25_3
*770 FILLER_25_36
*771 FILLER_25_48
*772 FILLER_25_61
*773 FILLER_25_81
*774 FILLER_25_93
*775 FILLER_26_109
*776 FILLER_26_11
*777 FILLER_26_121
*778 FILLER_26_133
*779 FILLER_26_139
*780 FILLER_26_141
*781 FILLER_26_153
*782 FILLER_26_165
*783 FILLER_26_177
*784 FILLER_26_189
*785 FILLER_26_195
*786 FILLER_26_197
*787 FILLER_26_209
*788 FILLER_26_221
*789 FILLER_26_233
*790 FILLER_26_24
*791 FILLER_26_245
*792 FILLER_26_251
*793 FILLER_26_253
*794 FILLER_26_265
*795 FILLER_26_277
*796 FILLER_26_289
*797 FILLER_26_297
*798 FILLER_26_3
*799 FILLER_26_37
*800 FILLER_26_45
*801 FILLER_26_51
*802 FILLER_26_63
*803 FILLER_26_69
*804 FILLER_26_81
*805 FILLER_26_85
*806 FILLER_26_97
*807 FILLER_27_105
*808 FILLER_27_111
*809 FILLER_27_113
*810 FILLER_27_125
*811 FILLER_27_137
*812 FILLER_27_149
*813 FILLER_27_161
*814 FILLER_27_167
*815 FILLER_27_169
*816 FILLER_27_181
*817 FILLER_27_19
*818 FILLER_27_193
*819 FILLER_27_205
*820 FILLER_27_217
*821 FILLER_27_223
*822 FILLER_27_225
*823 FILLER_27_237
*824 FILLER_27_249
*825 FILLER_27_26
*826 FILLER_27_261
*827 FILLER_27_273
*828 FILLER_27_279
*829 FILLER_27_281
*830 FILLER_27_293
*831 FILLER_27_46
*832 FILLER_27_54
*833 FILLER_27_57
*834 FILLER_27_81
*835 FILLER_27_93
*836 FILLER_28_104
*837 FILLER_28_116
*838 FILLER_28_128
*839 FILLER_28_13
*840 FILLER_28_141
*841 FILLER_28_153
*842 FILLER_28_165
*843 FILLER_28_177
*844 FILLER_28_189
*845 FILLER_28_195
*846 FILLER_28_197
*847 FILLER_28_209
*848 FILLER_28_221
*849 FILLER_28_233
*850 FILLER_28_245
*851 FILLER_28_25
*852 FILLER_28_251
*853 FILLER_28_253
*854 FILLER_28_265
*855 FILLER_28_277
*856 FILLER_28_289
*857 FILLER_28_297
*858 FILLER_28_35
*859 FILLER_28_39
*860 FILLER_28_43
*861 FILLER_28_6
*862 FILLER_28_63
*863 FILLER_28_71
*864 FILLER_28_80
*865 FILLER_28_92
*866 FILLER_29_105
*867 FILLER_29_111
*868 FILLER_29_113
*869 FILLER_29_125
*870 FILLER_29_137
*871 FILLER_29_149
*872 FILLER_29_16
*873 FILLER_29_161
*874 FILLER_29_167
*875 FILLER_29_169
*876 FILLER_29_181
*877 FILLER_29_193
*878 FILLER_29_205
*879 FILLER_29_217
*880 FILLER_29_223
*881 FILLER_29_225
*882 FILLER_29_237
*883 FILLER_29_249
*884 FILLER_29_261
*885 FILLER_29_27
*886 FILLER_29_273
*887 FILLER_29_279
*888 FILLER_29_281
*889 FILLER_29_293
*890 FILLER_29_3
*891 FILLER_29_40
*892 FILLER_29_51
*893 FILLER_29_55
*894 FILLER_29_61
*895 FILLER_29_69
*896 FILLER_29_8
*897 FILLER_29_81
*898 FILLER_29_93
*899 FILLER_2_109
*900 FILLER_2_121
*901 FILLER_2_133
*902 FILLER_2_139
*903 FILLER_2_141
*904 FILLER_2_15
*905 FILLER_2_153
*906 FILLER_2_165
*907 FILLER_2_177
*908 FILLER_2_189
*909 FILLER_2_195
*910 FILLER_2_197
*911 FILLER_2_209
*912 FILLER_2_221
*913 FILLER_2_233
*914 FILLER_2_245
*915 FILLER_2_251
*916 FILLER_2_253
*917 FILLER_2_265
*918 FILLER_2_27
*919 FILLER_2_277
*920 FILLER_2_289
*921 FILLER_2_29
*922 FILLER_2_297
*923 FILLER_2_3
*924 FILLER_2_37
*925 FILLER_2_43
*926 FILLER_2_47
*927 FILLER_2_55
*928 FILLER_2_60
*929 FILLER_2_72
*930 FILLER_2_85
*931 FILLER_2_97
*932 FILLER_30_109
*933 FILLER_30_121
*934 FILLER_30_133
*935 FILLER_30_139
*936 FILLER_30_141
*937 FILLER_30_153
*938 FILLER_30_165
*939 FILLER_30_177
*940 FILLER_30_189
*941 FILLER_30_19
*942 FILLER_30_195
*943 FILLER_30_197
*944 FILLER_30_209
*945 FILLER_30_221
*946 FILLER_30_233
*947 FILLER_30_245
*948 FILLER_30_251
*949 FILLER_30_253
*950 FILLER_30_265
*951 FILLER_30_27
*952 FILLER_30_277
*953 FILLER_30_289
*954 FILLER_30_297
*955 FILLER_30_37
*956 FILLER_30_49
*957 FILLER_30_65
*958 FILLER_30_71
*959 FILLER_30_78
*960 FILLER_30_85
*961 FILLER_30_97
*962 FILLER_31_105
*963 FILLER_31_111
*964 FILLER_31_113
*965 FILLER_31_125
*966 FILLER_31_137
*967 FILLER_31_149
*968 FILLER_31_16
*969 FILLER_31_161
*970 FILLER_31_167
*971 FILLER_31_169
*972 FILLER_31_181
*973 FILLER_31_193
*974 FILLER_31_205
*975 FILLER_31_217
*976 FILLER_31_223
*977 FILLER_31_225
*978 FILLER_31_237
*979 FILLER_31_249
*980 FILLER_31_261
*981 FILLER_31_273
*982 FILLER_31_279
*983 FILLER_31_28
*984 FILLER_31_281
*985 FILLER_31_293
*986 FILLER_31_3
*987 FILLER_31_34
*988 FILLER_31_41
*989 FILLER_31_52
*990 FILLER_31_64
*991 FILLER_31_68
*992 FILLER_31_7
*993 FILLER_31_85
*994 FILLER_31_93
*995 FILLER_32_107
*996 FILLER_32_119
*997 FILLER_32_131
*998 FILLER_32_139
*999 FILLER_32_141
*1000 FILLER_32_153
*1001 FILLER_32_16
*1002 FILLER_32_165
*1003 FILLER_32_177
*1004 FILLER_32_189
*1005 FILLER_32_195
*1006 FILLER_32_197
*1007 FILLER_32_209
*1008 FILLER_32_221
*1009 FILLER_32_23
*1010 FILLER_32_233
*1011 FILLER_32_245
*1012 FILLER_32_251
*1013 FILLER_32_253
*1014 FILLER_32_265
*1015 FILLER_32_27
*1016 FILLER_32_277
*1017 FILLER_32_289
*1018 FILLER_32_29
*1019 FILLER_32_297
*1020 FILLER_32_3
*1021 FILLER_32_33
*1022 FILLER_32_50
*1023 FILLER_32_64
*1024 FILLER_32_70
*1025 FILLER_32_79
*1026 FILLER_32_83
*1027 FILLER_32_95
*1028 FILLER_33_110
*1029 FILLER_33_113
*1030 FILLER_33_125
*1031 FILLER_33_137
*1032 FILLER_33_14
*1033 FILLER_33_149
*1034 FILLER_33_161
*1035 FILLER_33_167
*1036 FILLER_33_169
*1037 FILLER_33_18
*1038 FILLER_33_181
*1039 FILLER_33_193
*1040 FILLER_33_205
*1041 FILLER_33_217
*1042 FILLER_33_223
*1043 FILLER_33_225
*1044 FILLER_33_237
*1045 FILLER_33_249
*1046 FILLER_33_261
*1047 FILLER_33_27
*1048 FILLER_33_273
*1049 FILLER_33_279
*1050 FILLER_33_281
*1051 FILLER_33_293
*1052 FILLER_33_3
*1053 FILLER_33_35
*1054 FILLER_33_42
*1055 FILLER_33_54
*1056 FILLER_33_62
*1057 FILLER_33_74
*1058 FILLER_33_86
*1059 FILLER_33_98
*1060 FILLER_34_109
*1061 FILLER_34_11
*1062 FILLER_34_121
*1063 FILLER_34_133
*1064 FILLER_34_139
*1065 FILLER_34_141
*1066 FILLER_34_153
*1067 FILLER_34_165
*1068 FILLER_34_177
*1069 FILLER_34_189
*1070 FILLER_34_195
*1071 FILLER_34_197
*1072 FILLER_34_20
*1073 FILLER_34_209
*1074 FILLER_34_221
*1075 FILLER_34_233
*1076 FILLER_34_245
*1077 FILLER_34_251
*1078 FILLER_34_253
*1079 FILLER_34_265
*1080 FILLER_34_277
*1081 FILLER_34_289
*1082 FILLER_34_297
*1083 FILLER_34_3
*1084 FILLER_34_37
*1085 FILLER_34_45
*1086 FILLER_34_54
*1087 FILLER_34_61
*1088 FILLER_34_67
*1089 FILLER_34_78
*1090 FILLER_34_85
*1091 FILLER_34_97
*1092 FILLER_35_103
*1093 FILLER_35_11
*1094 FILLER_35_111
*1095 FILLER_35_113
*1096 FILLER_35_125
*1097 FILLER_35_137
*1098 FILLER_35_149
*1099 FILLER_35_161
*1100 FILLER_35_167
*1101 FILLER_35_169
*1102 FILLER_35_181
*1103 FILLER_35_193
*1104 FILLER_35_205
*1105 FILLER_35_217
*1106 FILLER_35_22
*1107 FILLER_35_223
*1108 FILLER_35_225
*1109 FILLER_35_237
*1110 FILLER_35_249
*1111 FILLER_35_261
*1112 FILLER_35_273
*1113 FILLER_35_279
*1114 FILLER_35_281
*1115 FILLER_35_293
*1116 FILLER_35_3
*1117 FILLER_35_34
*1118 FILLER_35_52
*1119 FILLER_35_57
*1120 FILLER_35_79
*1121 FILLER_35_91
*1122 FILLER_36_109
*1123 FILLER_36_121
*1124 FILLER_36_133
*1125 FILLER_36_139
*1126 FILLER_36_141
*1127 FILLER_36_153
*1128 FILLER_36_165
*1129 FILLER_36_177
*1130 FILLER_36_189
*1131 FILLER_36_19
*1132 FILLER_36_195
*1133 FILLER_36_197
*1134 FILLER_36_209
*1135 FILLER_36_221
*1136 FILLER_36_233
*1137 FILLER_36_245
*1138 FILLER_36_251
*1139 FILLER_36_253
*1140 FILLER_36_265
*1141 FILLER_36_27
*1142 FILLER_36_277
*1143 FILLER_36_289
*1144 FILLER_36_297
*1145 FILLER_36_45
*1146 FILLER_36_53
*1147 FILLER_36_66
*1148 FILLER_36_73
*1149 FILLER_36_81
*1150 FILLER_36_85
*1151 FILLER_36_97
*1152 FILLER_37_105
*1153 FILLER_37_111
*1154 FILLER_37_113
*1155 FILLER_37_125
*1156 FILLER_37_137
*1157 FILLER_37_149
*1158 FILLER_37_161
*1159 FILLER_37_167
*1160 FILLER_37_169
*1161 FILLER_37_17
*1162 FILLER_37_181
*1163 FILLER_37_193
*1164 FILLER_37_205
*1165 FILLER_37_21
*1166 FILLER_37_217
*1167 FILLER_37_223
*1168 FILLER_37_225
*1169 FILLER_37_237
*1170 FILLER_37_249
*1171 FILLER_37_261
*1172 FILLER_37_273
*1173 FILLER_37_279
*1174 FILLER_37_281
*1175 FILLER_37_293
*1176 FILLER_37_30
*1177 FILLER_37_42
*1178 FILLER_37_54
*1179 FILLER_37_57
*1180 FILLER_37_69
*1181 FILLER_37_8
*1182 FILLER_37_81
*1183 FILLER_37_93
*1184 FILLER_38_109
*1185 FILLER_38_121
*1186 FILLER_38_133
*1187 FILLER_38_139
*1188 FILLER_38_14
*1189 FILLER_38_141
*1190 FILLER_38_153
*1191 FILLER_38_165
*1192 FILLER_38_177
*1193 FILLER_38_189
*1194 FILLER_38_19
*1195 FILLER_38_195
*1196 FILLER_38_197
*1197 FILLER_38_209
*1198 FILLER_38_221
*1199 FILLER_38_233
*1200 FILLER_38_245
*1201 FILLER_38_251
*1202 FILLER_38_253
*1203 FILLER_38_265
*1204 FILLER_38_27
*1205 FILLER_38_277
*1206 FILLER_38_289
*1207 FILLER_38_297
*1208 FILLER_38_3
*1209 FILLER_38_32
*1210 FILLER_38_44
*1211 FILLER_38_56
*1212 FILLER_38_68
*1213 FILLER_38_8
*1214 FILLER_38_80
*1215 FILLER_38_85
*1216 FILLER_38_97
*1217 FILLER_39_105
*1218 FILLER_39_11
*1219 FILLER_39_111
*1220 FILLER_39_113
*1221 FILLER_39_125
*1222 FILLER_39_137
*1223 FILLER_39_149
*1224 FILLER_39_161
*1225 FILLER_39_167
*1226 FILLER_39_169
*1227 FILLER_39_181
*1228 FILLER_39_193
*1229 FILLER_39_205
*1230 FILLER_39_21
*1231 FILLER_39_217
*1232 FILLER_39_223
*1233 FILLER_39_225
*1234 FILLER_39_237
*1235 FILLER_39_249
*1236 FILLER_39_261
*1237 FILLER_39_273
*1238 FILLER_39_279
*1239 FILLER_39_281
*1240 FILLER_39_293
*1241 FILLER_39_3
*1242 FILLER_39_33
*1243 FILLER_39_45
*1244 FILLER_39_53
*1245 FILLER_39_57
*1246 FILLER_39_69
*1247 FILLER_39_81
*1248 FILLER_39_93
*1249 FILLER_3_100
*1250 FILLER_3_113
*1251 FILLER_3_125
*1252 FILLER_3_137
*1253 FILLER_3_149
*1254 FILLER_3_15
*1255 FILLER_3_161
*1256 FILLER_3_167
*1257 FILLER_3_169
*1258 FILLER_3_181
*1259 FILLER_3_193
*1260 FILLER_3_205
*1261 FILLER_3_217
*1262 FILLER_3_223
*1263 FILLER_3_225
*1264 FILLER_3_23
*1265 FILLER_3_237
*1266 FILLER_3_249
*1267 FILLER_3_261
*1268 FILLER_3_273
*1269 FILLER_3_279
*1270 FILLER_3_281
*1271 FILLER_3_29
*1272 FILLER_3_293
*1273 FILLER_3_3
*1274 FILLER_3_37
*1275 FILLER_3_51
*1276 FILLER_3_55
*1277 FILLER_3_57
*1278 FILLER_3_76
*1279 FILLER_3_8
*1280 FILLER_3_88
*1281 FILLER_40_109
*1282 FILLER_40_121
*1283 FILLER_40_133
*1284 FILLER_40_139
*1285 FILLER_40_141
*1286 FILLER_40_15
*1287 FILLER_40_153
*1288 FILLER_40_165
*1289 FILLER_40_177
*1290 FILLER_40_189
*1291 FILLER_40_195
*1292 FILLER_40_197
*1293 FILLER_40_209
*1294 FILLER_40_221
*1295 FILLER_40_233
*1296 FILLER_40_245
*1297 FILLER_40_251
*1298 FILLER_40_253
*1299 FILLER_40_265
*1300 FILLER_40_27
*1301 FILLER_40_277
*1302 FILLER_40_289
*1303 FILLER_40_29
*1304 FILLER_40_297
*1305 FILLER_40_3
*1306 FILLER_40_41
*1307 FILLER_40_53
*1308 FILLER_40_65
*1309 FILLER_40_77
*1310 FILLER_40_83
*1311 FILLER_40_85
*1312 FILLER_40_97
*1313 FILLER_41_105
*1314 FILLER_41_111
*1315 FILLER_41_113
*1316 FILLER_41_125
*1317 FILLER_41_137
*1318 FILLER_41_149
*1319 FILLER_41_15
*1320 FILLER_41_161
*1321 FILLER_41_167
*1322 FILLER_41_169
*1323 FILLER_41_181
*1324 FILLER_41_193
*1325 FILLER_41_205
*1326 FILLER_41_217
*1327 FILLER_41_223
*1328 FILLER_41_225
*1329 FILLER_41_237
*1330 FILLER_41_249
*1331 FILLER_41_261
*1332 FILLER_41_27
*1333 FILLER_41_273
*1334 FILLER_41_279
*1335 FILLER_41_281
*1336 FILLER_41_293
*1337 FILLER_41_3
*1338 FILLER_41_39
*1339 FILLER_41_51
*1340 FILLER_41_55
*1341 FILLER_41_57
*1342 FILLER_41_69
*1343 FILLER_41_81
*1344 FILLER_41_93
*1345 FILLER_42_109
*1346 FILLER_42_121
*1347 FILLER_42_133
*1348 FILLER_42_139
*1349 FILLER_42_141
*1350 FILLER_42_15
*1351 FILLER_42_153
*1352 FILLER_42_165
*1353 FILLER_42_177
*1354 FILLER_42_189
*1355 FILLER_42_195
*1356 FILLER_42_197
*1357 FILLER_42_209
*1358 FILLER_42_221
*1359 FILLER_42_233
*1360 FILLER_42_245
*1361 FILLER_42_251
*1362 FILLER_42_253
*1363 FILLER_42_265
*1364 FILLER_42_27
*1365 FILLER_42_277
*1366 FILLER_42_289
*1367 FILLER_42_29
*1368 FILLER_42_297
*1369 FILLER_42_3
*1370 FILLER_42_41
*1371 FILLER_42_53
*1372 FILLER_42_65
*1373 FILLER_42_77
*1374 FILLER_42_83
*1375 FILLER_42_85
*1376 FILLER_42_97
*1377 FILLER_43_105
*1378 FILLER_43_111
*1379 FILLER_43_113
*1380 FILLER_43_125
*1381 FILLER_43_137
*1382 FILLER_43_149
*1383 FILLER_43_15
*1384 FILLER_43_161
*1385 FILLER_43_167
*1386 FILLER_43_169
*1387 FILLER_43_181
*1388 FILLER_43_193
*1389 FILLER_43_205
*1390 FILLER_43_217
*1391 FILLER_43_223
*1392 FILLER_43_225
*1393 FILLER_43_237
*1394 FILLER_43_249
*1395 FILLER_43_261
*1396 FILLER_43_27
*1397 FILLER_43_273
*1398 FILLER_43_279
*1399 FILLER_43_281
*1400 FILLER_43_293
*1401 FILLER_43_3
*1402 FILLER_43_39
*1403 FILLER_43_51
*1404 FILLER_43_55
*1405 FILLER_43_57
*1406 FILLER_43_69
*1407 FILLER_43_81
*1408 FILLER_43_93
*1409 FILLER_44_109
*1410 FILLER_44_121
*1411 FILLER_44_133
*1412 FILLER_44_139
*1413 FILLER_44_141
*1414 FILLER_44_153
*1415 FILLER_44_165
*1416 FILLER_44_177
*1417 FILLER_44_189
*1418 FILLER_44_195
*1419 FILLER_44_197
*1420 FILLER_44_209
*1421 FILLER_44_21
*1422 FILLER_44_221
*1423 FILLER_44_233
*1424 FILLER_44_245
*1425 FILLER_44_251
*1426 FILLER_44_253
*1427 FILLER_44_265
*1428 FILLER_44_27
*1429 FILLER_44_277
*1430 FILLER_44_289
*1431 FILLER_44_29
*1432 FILLER_44_297
*1433 FILLER_44_3
*1434 FILLER_44_41
*1435 FILLER_44_53
*1436 FILLER_44_65
*1437 FILLER_44_77
*1438 FILLER_44_83
*1439 FILLER_44_85
*1440 FILLER_44_9
*1441 FILLER_44_97
*1442 FILLER_45_105
*1443 FILLER_45_111
*1444 FILLER_45_113
*1445 FILLER_45_125
*1446 FILLER_45_137
*1447 FILLER_45_149
*1448 FILLER_45_161
*1449 FILLER_45_167
*1450 FILLER_45_169
*1451 FILLER_45_181
*1452 FILLER_45_193
*1453 FILLER_45_205
*1454 FILLER_45_21
*1455 FILLER_45_217
*1456 FILLER_45_223
*1457 FILLER_45_225
*1458 FILLER_45_237
*1459 FILLER_45_249
*1460 FILLER_45_261
*1461 FILLER_45_273
*1462 FILLER_45_279
*1463 FILLER_45_281
*1464 FILLER_45_293
*1465 FILLER_45_3
*1466 FILLER_45_33
*1467 FILLER_45_45
*1468 FILLER_45_53
*1469 FILLER_45_57
*1470 FILLER_45_69
*1471 FILLER_45_81
*1472 FILLER_45_9
*1473 FILLER_45_93
*1474 FILLER_46_109
*1475 FILLER_46_121
*1476 FILLER_46_133
*1477 FILLER_46_139
*1478 FILLER_46_141
*1479 FILLER_46_153
*1480 FILLER_46_165
*1481 FILLER_46_177
*1482 FILLER_46_189
*1483 FILLER_46_195
*1484 FILLER_46_197
*1485 FILLER_46_209
*1486 FILLER_46_21
*1487 FILLER_46_221
*1488 FILLER_46_233
*1489 FILLER_46_245
*1490 FILLER_46_251
*1491 FILLER_46_253
*1492 FILLER_46_265
*1493 FILLER_46_27
*1494 FILLER_46_277
*1495 FILLER_46_289
*1496 FILLER_46_29
*1497 FILLER_46_297
*1498 FILLER_46_3
*1499 FILLER_46_41
*1500 FILLER_46_53
*1501 FILLER_46_65
*1502 FILLER_46_77
*1503 FILLER_46_83
*1504 FILLER_46_85
*1505 FILLER_46_9
*1506 FILLER_46_97
*1507 FILLER_47_105
*1508 FILLER_47_111
*1509 FILLER_47_113
*1510 FILLER_47_125
*1511 FILLER_47_137
*1512 FILLER_47_149
*1513 FILLER_47_161
*1514 FILLER_47_167
*1515 FILLER_47_169
*1516 FILLER_47_18
*1517 FILLER_47_181
*1518 FILLER_47_193
*1519 FILLER_47_205
*1520 FILLER_47_217
*1521 FILLER_47_223
*1522 FILLER_47_225
*1523 FILLER_47_237
*1524 FILLER_47_249
*1525 FILLER_47_261
*1526 FILLER_47_273
*1527 FILLER_47_279
*1528 FILLER_47_281
*1529 FILLER_47_293
*1530 FILLER_47_3
*1531 FILLER_47_30
*1532 FILLER_47_42
*1533 FILLER_47_54
*1534 FILLER_47_57
*1535 FILLER_47_69
*1536 FILLER_47_81
*1537 FILLER_47_9
*1538 FILLER_47_93
*1539 FILLER_48_109
*1540 FILLER_48_121
*1541 FILLER_48_133
*1542 FILLER_48_139
*1543 FILLER_48_141
*1544 FILLER_48_153
*1545 FILLER_48_165
*1546 FILLER_48_177
*1547 FILLER_48_189
*1548 FILLER_48_195
*1549 FILLER_48_197
*1550 FILLER_48_209
*1551 FILLER_48_21
*1552 FILLER_48_221
*1553 FILLER_48_233
*1554 FILLER_48_245
*1555 FILLER_48_251
*1556 FILLER_48_253
*1557 FILLER_48_265
*1558 FILLER_48_27
*1559 FILLER_48_277
*1560 FILLER_48_289
*1561 FILLER_48_29
*1562 FILLER_48_297
*1563 FILLER_48_3
*1564 FILLER_48_41
*1565 FILLER_48_53
*1566 FILLER_48_65
*1567 FILLER_48_77
*1568 FILLER_48_83
*1569 FILLER_48_85
*1570 FILLER_48_9
*1571 FILLER_48_97
*1572 FILLER_49_105
*1573 FILLER_49_111
*1574 FILLER_49_113
*1575 FILLER_49_125
*1576 FILLER_49_137
*1577 FILLER_49_149
*1578 FILLER_49_15
*1579 FILLER_49_161
*1580 FILLER_49_167
*1581 FILLER_49_169
*1582 FILLER_49_181
*1583 FILLER_49_193
*1584 FILLER_49_205
*1585 FILLER_49_217
*1586 FILLER_49_223
*1587 FILLER_49_225
*1588 FILLER_49_237
*1589 FILLER_49_249
*1590 FILLER_49_261
*1591 FILLER_49_27
*1592 FILLER_49_273
*1593 FILLER_49_279
*1594 FILLER_49_281
*1595 FILLER_49_293
*1596 FILLER_49_3
*1597 FILLER_49_39
*1598 FILLER_49_51
*1599 FILLER_49_55
*1600 FILLER_49_57
*1601 FILLER_49_69
*1602 FILLER_49_81
*1603 FILLER_49_93
*1604 FILLER_4_109
*1605 FILLER_4_121
*1606 FILLER_4_133
*1607 FILLER_4_139
*1608 FILLER_4_141
*1609 FILLER_4_153
*1610 FILLER_4_165
*1611 FILLER_4_177
*1612 FILLER_4_189
*1613 FILLER_4_19
*1614 FILLER_4_195
*1615 FILLER_4_197
*1616 FILLER_4_209
*1617 FILLER_4_221
*1618 FILLER_4_233
*1619 FILLER_4_245
*1620 FILLER_4_251
*1621 FILLER_4_253
*1622 FILLER_4_265
*1623 FILLER_4_27
*1624 FILLER_4_277
*1625 FILLER_4_289
*1626 FILLER_4_297
*1627 FILLER_4_34
*1628 FILLER_4_42
*1629 FILLER_4_47
*1630 FILLER_4_56
*1631 FILLER_4_64
*1632 FILLER_4_76