*SPEF "ieee 1481-1999"
*DESIGN "browndeer_rv8u"
*DATE "11:11:11 Fri 11 11, 1111"
*VENDOR "OpenRCX"
*PROGRAM "Parallel Extraction"
*VERSION "1.0"
*DESIGN_FLOW "NAME_SCOPE LOCAL" "PIN_CAP NONE"
*DIVIDER /
*DELIMITER :
*BUS_DELIMITER []
*T_UNIT 1 NS
*C_UNIT 1 PF
*R_UNIT 1 OHM
*L_UNIT 1 HENRY

*NAME_MAP
*1 io_in[0]
*2 io_in[1]
*3 io_in[2]
*4 io_in[3]
*5 io_in[4]
*6 io_in[5]
*7 io_in[6]
*8 io_in[7]
*9 io_out[0]
*10 io_out[1]
*11 io_out[2]
*12 io_out[3]
*13 io_out[4]
*14 io_out[5]
*15 io_out[6]
*16 io_out[7]
*19 _0000_
*20 _0001_
*21 _0002_
*22 _0003_
*23 _0004_
*24 _0005_
*25 _0006_
*26 _0007_
*27 _0008_
*28 _0009_
*29 _0010_
*30 _0011_
*31 _0012_
*32 _0013_
*33 _0014_
*34 _0015_
*35 _0016_
*36 _0017_
*37 _0018_
*38 _0019_
*39 _0020_
*40 _0021_
*41 _0022_
*42 _0023_
*43 _0024_
*44 _0025_
*45 _0026_
*46 _0027_
*47 _0028_
*48 _0029_
*49 _0030_
*50 _0031_
*51 _0032_
*52 _0033_
*53 _0034_
*54 _0035_
*55 _0036_
*56 _0037_
*57 _0038_
*58 _0039_
*59 _0040_
*60 _0041_
*61 _0042_
*62 _0043_
*63 _0044_
*64 _0045_
*65 _0046_
*66 _0047_
*67 _0048_
*68 _0049_
*69 _0050_
*70 _0051_
*71 _0052_
*72 _0053_
*73 _0054_
*74 _0055_
*75 _0056_
*76 _0057_
*77 _0058_
*78 _0059_
*79 _0060_
*80 _0061_
*81 _0062_
*82 _0063_
*83 _0064_
*84 _0065_
*85 _0066_
*86 _0067_
*87 _0068_
*88 _0069_
*89 _0070_
*90 _0071_
*91 _0072_
*92 _0073_
*93 _0074_
*94 _0075_
*95 _0076_
*96 _0077_
*97 _0078_
*98 _0079_
*99 _0080_
*100 _0081_
*101 _0082_
*102 _0083_
*103 _0084_
*104 _0085_
*105 _0086_
*106 _0087_
*107 _0088_
*108 _0089_
*109 _0090_
*110 _0091_
*111 _0092_
*112 _0093_
*113 _0094_
*114 _0095_
*115 _0096_
*116 _0097_
*117 _0098_
*118 _0099_
*119 _0100_
*120 _0101_
*121 _0102_
*122 _0103_
*123 _0104_
*124 _0105_
*125 _0106_
*126 _0107_
*127 _0108_
*128 _0109_
*129 _0110_
*130 _0111_
*131 _0112_
*132 _0113_
*133 _0114_
*134 _0115_
*135 _0116_
*136 _0117_
*137 _0118_
*138 _0119_
*139 _0120_
*140 _0121_
*141 _0122_
*142 _0123_
*143 _0124_
*144 _0125_
*145 _0126_
*146 _0127_
*147 _0128_
*148 _0129_
*149 _0130_
*150 _0131_
*151 _0132_
*152 _0133_
*153 _0134_
*154 _0135_
*155 _0136_
*156 _0137_
*157 _0138_
*158 _0139_
*159 _0140_
*160 _0141_
*161 _0142_
*162 _0143_
*163 _0144_
*164 _0145_
*165 _0146_
*166 _0147_
*167 _0149_
*168 _0150_
*169 _0151_
*170 _0152_
*171 _0153_
*172 _0154_
*173 _0155_
*174 _0156_
*175 _0157_
*176 _0158_
*177 _0159_
*178 _0160_
*179 _0161_
*180 _0162_
*181 _0163_
*182 _0164_
*183 _0165_
*184 _0166_
*185 _0167_
*186 _0168_
*187 _0169_
*188 _0170_
*189 _0171_
*190 _0172_
*191 _0173_
*192 _0174_
*193 _0175_
*194 _0176_
*195 _0177_
*196 _0178_
*197 _0179_
*198 _0180_
*199 _0181_
*200 _0182_
*201 _0183_
*202 _0184_
*203 _0185_
*204 _0186_
*205 _0187_
*206 _0188_
*207 _0189_
*208 _0190_
*209 _0191_
*210 _0192_
*211 _0193_
*212 _0194_
*213 _0195_
*214 _0196_
*215 _0197_
*216 _0198_
*217 _0199_
*218 _0200_
*219 _0201_
*220 _0202_
*221 _0203_
*222 _0204_
*223 _0205_
*224 _0206_
*225 _0207_
*226 _0208_
*227 _0209_
*228 _0210_
*229 _0211_
*230 _0212_
*231 _0213_
*232 _0214_
*233 _0215_
*234 _0216_
*235 _0217_
*236 _0218_
*237 _0219_
*238 _0220_
*239 _0221_
*240 _0222_
*241 _0223_
*242 _0224_
*243 _0225_
*244 _0226_
*245 _0227_
*246 _0228_
*247 _0229_
*248 _0230_
*249 _0231_
*250 _0232_
*251 _0233_
*252 _0234_
*253 _0235_
*254 _0236_
*255 _0237_
*256 _0238_
*257 _0239_
*258 _0240_
*259 _0241_
*260 _0242_
*261 _0243_
*262 _0244_
*263 _0245_
*264 _0246_
*265 _0247_
*266 _0248_
*267 _0249_
*268 _0250_
*269 _0251_
*270 _0252_
*271 _0253_
*272 _0254_
*273 _0255_
*274 _0256_
*275 _0257_
*276 _0258_
*277 _0259_
*278 _0260_
*279 _0261_
*280 _0262_
*281 _0263_
*282 _0264_
*283 _0265_
*284 _0266_
*285 _0267_
*286 _0268_
*287 _0269_
*288 _0270_
*289 _0271_
*290 _0272_
*291 _0273_
*292 _0274_
*293 _0275_
*294 _0276_
*295 _0277_
*296 _0278_
*297 _0279_
*298 _0280_
*299 _0281_
*300 _0282_
*301 _0283_
*302 _0284_
*303 _0285_
*304 _0286_
*305 _0287_
*306 _0288_
*307 _0289_
*308 _0290_
*309 _0291_
*310 _0292_
*311 _0293_
*312 _0294_
*313 _0295_
*314 _0296_
*315 _0297_
*316 _0298_
*317 _0299_
*318 _0300_
*319 _0301_
*320 _0302_
*321 _0303_
*322 _0304_
*323 _0305_
*324 _0306_
*325 _0307_
*326 _0308_
*327 _0309_
*328 _0310_
*329 _0311_
*330 _0312_
*331 _0313_
*332 _0314_
*333 _0315_
*334 _0316_
*335 _0317_
*336 _0318_
*337 _0319_
*338 _0320_
*339 _0321_
*340 _0322_
*341 _0323_
*342 _0324_
*343 _0325_
*344 _0326_
*345 _0327_
*346 _0328_
*347 _0329_
*348 _0330_
*349 _0331_
*350 _0332_
*351 _0333_
*352 _0334_
*353 _0335_
*354 _0336_
*355 _0337_
*356 _0338_
*357 _0339_
*358 _0340_
*359 _0341_
*360 _0342_
*361 _0343_
*362 _0344_
*363 _0345_
*364 _0346_
*365 _0347_
*366 _0348_
*367 _0349_
*368 _0350_
*369 _0351_
*370 _0352_
*371 _0353_
*372 _0354_
*373 _0355_
*374 _0356_
*375 _0357_
*376 _0358_
*377 _0359_
*378 _0360_
*379 _0361_
*380 _0362_
*381 _0363_
*382 _0364_
*383 _0365_
*384 _0366_
*385 _0367_
*386 _0368_
*387 _0369_
*388 _0370_
*389 _0371_
*390 _0372_
*391 _0373_
*392 _0374_
*393 _0375_
*394 _0376_
*395 _0377_
*396 _0378_
*397 _0379_
*398 _0380_
*399 _0381_
*400 _0382_
*401 _0383_
*402 _0384_
*403 _0385_
*404 _0386_
*405 _0387_
*406 _0388_
*407 _0389_
*408 _0390_
*409 _0391_
*410 _0392_
*411 _0393_
*412 _0394_
*413 _0395_
*414 _0396_
*415 _0397_
*416 _0398_
*417 _0399_
*418 _0400_
*419 _0401_
*420 _0402_
*421 _0403_
*422 _0404_
*423 _0405_
*424 _0406_
*425 _0407_
*426 _0408_
*427 _0409_
*428 _0410_
*429 _0411_
*430 _0412_
*431 _0413_
*432 _0414_
*433 _0415_
*434 _0416_
*435 _0417_
*436 _0418_
*437 _0419_
*438 _0420_
*439 _0421_
*440 _0422_
*441 _0423_
*442 _0424_
*443 _0425_
*444 _0426_
*445 _0427_
*446 _0428_
*447 _0429_
*448 _0430_
*449 _0431_
*450 _0432_
*451 _0433_
*452 _0434_
*453 _0435_
*454 _0436_
*455 _0437_
*456 _0438_
*457 _0439_
*458 _0440_
*459 _0441_
*460 _0442_
*461 _0443_
*462 _0444_
*463 _0445_
*464 _0446_
*465 _0447_
*466 _0448_
*467 _0449_
*468 _0450_
*469 _0451_
*470 _0452_
*471 _0453_
*472 _0454_
*473 _0455_
*474 _0456_
*475 _0457_
*476 _0458_
*477 _0459_
*478 _0460_
*479 _0461_
*480 _0462_
*481 _0463_
*482 _0464_
*483 _0465_
*484 _0466_
*485 _0467_
*486 _0468_
*487 _0469_
*488 _0470_
*489 _0471_
*490 _0472_
*491 _0473_
*492 _0474_
*493 _0475_
*494 _0476_
*495 _0477_
*496 _0478_
*497 _0479_
*498 _0480_
*499 _0481_
*500 _0482_
*501 _0483_
*502 _0484_
*503 _0485_
*504 _0486_
*505 _0487_
*506 _0488_
*507 _0489_
*508 _0490_
*509 _0491_
*510 _0492_
*511 _0493_
*512 _0494_
*513 _0495_
*514 _0496_
*515 _0497_
*516 _0498_
*517 _0499_
*518 _0500_
*519 _0501_
*520 _0502_
*521 _0503_
*522 _0504_
*523 _0505_
*524 _0506_
*525 _0507_
*526 _0508_
*527 _0509_
*528 _0510_
*529 _0511_
*530 _0512_
*531 _0513_
*532 _0514_
*533 _0515_
*534 _0516_
*535 _0517_
*536 _0518_
*537 _0519_
*538 _0520_
*539 _0521_
*540 _0522_
*541 _0523_
*542 _0524_
*543 _0525_
*544 _0526_
*545 _0527_
*546 _0528_
*547 _0529_
*548 _0530_
*549 _0531_
*550 _0532_
*551 _0533_
*552 _0534_
*553 _0535_
*554 _0536_
*555 _0537_
*556 _0538_
*557 _0539_
*558 _0540_
*559 _0541_
*560 _0542_
*561 _0543_
*562 _0544_
*563 _0545_
*564 _0546_
*565 _0547_
*566 _0548_
*567 _0549_
*568 _0550_
*569 _0551_
*570 _0552_
*571 _0553_
*572 _0554_
*573 _0555_
*574 _0556_
*575 _0557_
*576 _0558_
*577 _0559_
*578 _0560_
*579 _0561_
*580 _0562_
*581 _0563_
*582 _0564_
*583 _0565_
*584 _0566_
*585 _0567_
*586 _0568_
*587 _0569_
*588 _0570_
*589 _0571_
*590 _0572_
*591 _0573_
*592 _0574_
*593 _0575_
*594 _0576_
*595 _0577_
*596 _0578_
*597 _0579_
*598 _0580_
*599 _0581_
*600 _0582_
*601 _0583_
*602 _0584_
*603 _0585_
*604 _0586_
*605 _0587_
*606 _0588_
*607 _0589_
*608 _0590_
*609 _0591_
*610 _0592_
*611 _0593_
*612 _0594_
*613 _0595_
*614 _0596_
*615 _0597_
*616 _0598_
*617 _0599_
*618 _0600_
*619 _0601_
*620 _0602_
*621 _0603_
*622 _0604_
*623 _0605_
*624 _0606_
*625 _0607_
*626 _0608_
*627 _0609_
*628 _0610_
*629 _0611_
*630 _0612_
*631 _0613_
*632 _0614_
*633 _0615_
*634 _0616_
*635 _0617_
*636 _0618_
*637 _0619_
*638 _0620_
*639 _0621_
*640 _0622_
*641 _0623_
*642 _0624_
*643 _0625_
*644 _0626_
*645 _0627_
*646 _0628_
*647 _0629_
*648 _0630_
*649 _0631_
*650 _0632_
*651 _0633_
*652 _0634_
*653 _0635_
*654 _0636_
*655 _0637_
*656 _0638_
*657 _0639_
*658 _0640_
*659 _0641_
*660 _0642_
*661 _0643_
*662 _0644_
*663 _0645_
*664 _0646_
*665 _0647_
*666 _0648_
*667 _0649_
*668 _0650_
*669 _0651_
*670 _0652_
*671 _0653_
*672 _0654_
*673 _0655_
*674 _0656_
*675 _0657_
*676 _0658_
*677 _0659_
*678 _0660_
*679 _0661_
*680 _0662_
*681 _0663_
*682 _0664_
*683 _0665_
*684 _0666_
*685 _0667_
*686 _0668_
*687 _0669_
*688 _0670_
*689 _0671_
*690 _0672_
*691 _0673_
*692 _0674_
*693 _0675_
*694 _0676_
*695 _0677_
*696 _0678_
*697 _0679_
*698 _0680_
*699 _0681_
*700 _0682_
*701 _0683_
*702 _0684_
*703 _0685_
*704 _0686_
*705 _0687_
*706 _0688_
*707 _0689_
*708 _0690_
*709 _0691_
*710 _0692_
*711 _0693_
*712 _0694_
*713 _0695_
*714 _0696_
*715 _0697_
*716 _0698_
*717 _0699_
*718 _0700_
*719 _0701_
*720 _0702_
*721 _0703_
*722 _0704_
*723 _0705_
*724 _0706_
*725 _0707_
*726 _0708_
*727 _0709_
*728 _0710_
*729 _0711_
*730 _0712_
*731 _0713_
*732 _0714_
*733 _0715_
*734 _0716_
*735 _0717_
*736 _0718_
*737 _0719_
*738 _0720_
*739 _0721_
*740 _0722_
*741 _0723_
*742 _0724_
*743 _0725_
*744 _0726_
*745 _0727_
*746 _0728_
*747 _0729_
*748 _0730_
*749 _0731_
*750 _0732_
*751 _0733_
*752 _0734_
*753 _0735_
*754 _0736_
*755 _0737_
*756 _0738_
*757 _0739_
*758 _0740_
*759 _0741_
*760 _0742_
*761 _0743_
*762 _0744_
*763 _0745_
*764 _0746_
*765 _0747_
*766 _0748_
*767 _0749_
*768 _0750_
*769 _0751_
*770 _0752_
*771 _0753_
*772 _0754_
*773 _0755_
*774 _0756_
*775 _0757_
*776 _0758_
*777 _0759_
*778 _0760_
*779 _0761_
*780 _0762_
*781 _0763_
*782 _0764_
*783 _0765_
*784 _0766_
*785 _0767_
*786 _0768_
*787 _0769_
*788 _0770_
*789 _0771_
*790 _0772_
*791 _0773_
*792 _0774_
*793 _0775_
*794 _0776_
*795 _0777_
*796 _0778_
*797 _0779_
*798 _0780_
*799 _0781_
*800 _0782_
*801 _0783_
*802 _0784_
*803 _0785_
*804 _0786_
*805 _0787_
*806 _0788_
*807 _0789_
*808 _0790_
*809 _0791_
*810 _0792_
*811 _0793_
*812 _0794_
*813 _0795_
*814 _0796_
*815 _0797_
*816 _0798_
*817 _0799_
*818 _0800_
*819 _0801_
*820 _0802_
*821 _0803_
*822 _0804_
*823 _0805_
*824 _0806_
*825 _0807_
*826 _0808_
*827 _0809_
*828 _0810_
*829 _0811_
*830 _0812_
*831 _0813_
*832 _0814_
*833 _0815_
*834 _0816_
*835 _0817_
*836 _0818_
*837 _0819_
*838 _0820_
*839 _0821_
*840 _0822_
*841 _0823_
*842 _0824_
*843 _0825_
*844 _0826_
*845 _0827_
*846 _0828_
*847 _0829_
*848 _0830_
*849 _0831_
*850 _0832_
*851 _0833_
*852 _0834_
*853 _0835_
*854 _0836_
*855 _0837_
*856 _0838_
*857 _0839_
*858 _0840_
*859 _0841_
*860 _0842_
*861 _0843_
*862 _0844_
*863 _0845_
*864 _0846_
*865 _0847_
*866 _0848_
*867 _0849_
*868 _0850_
*869 _0851_
*870 _0852_
*871 _0853_
*872 _0854_
*873 _0855_
*874 _0856_
*875 _0857_
*876 _0858_
*877 _0859_
*878 _0860_
*879 _0861_
*880 _0862_
*881 _0863_
*882 _0864_
*883 _0865_
*884 _0866_
*885 _0867_
*886 _0868_
*887 _0869_
*888 _0870_
*889 _0871_
*890 _0872_
*891 _0873_
*892 _0874_
*893 _0875_
*894 _0876_
*895 _0877_
*896 _0878_
*897 _0879_
*898 _0880_
*899 _0881_
*900 _0882_
*901 _0883_
*902 _0884_
*903 _0885_
*904 _0886_
*905 _0887_
*906 _0888_
*907 _0889_
*908 _0890_
*909 _0891_
*910 _0892_
*911 _0893_
*912 _0894_
*913 _0895_
*914 _0896_
*915 _0897_
*916 _0898_
*917 _0899_
*918 _0900_
*919 _0901_
*920 _0902_
*921 _0903_
*922 _0904_
*923 _0905_
*924 _0906_
*925 _0907_
*926 _0908_
*927 _0909_
*928 _0910_
*929 _0911_
*930 _0912_
*931 _0913_
*932 _0914_
*933 _0915_
*934 _0916_
*935 _0917_
*936 _0918_
*937 _0919_
*938 _0920_
*939 _0921_
*940 _0922_
*941 _0923_
*942 _0924_
*943 _0925_
*944 _0926_
*945 _0927_
*946 _0928_
*947 _0929_
*948 _0930_
*949 _0931_
*950 _0932_
*951 _0933_
*952 _0934_
*953 _0935_
*954 _0936_
*955 _0937_
*956 _0938_
*957 _0939_
*958 _0940_
*959 _0941_
*960 _0942_
*961 _0943_
*962 _0944_
*963 _0945_
*964 _0946_
*965 _0947_
*966 _0948_
*967 _0949_
*968 _0950_
*969 _0951_
*970 _0952_
*971 _0953_
*972 _0954_
*973 _0955_
*974 _0956_
*975 _0957_
*976 clknet_0_io_in[0]
*977 clknet_1_0__leaf_io_in[0]
*978 clknet_1_1__leaf_io_in[0]
*979 des\.des_clk_out
*980 des\.des_counter\[0\]
*981 des\.des_counter\[1\]
*982 des\.des_counter\[2\]
*983 des\.des_din\[24\]
*984 des\.des_dout\[0\]
*985 des\.des_dout\[10\]
*986 des\.des_dout\[11\]
*987 des\.des_dout\[12\]
*988 des\.des_dout\[13\]
*989 des\.des_dout\[14\]
*990 des\.des_dout\[15\]
*991 des\.des_dout\[16\]
*992 des\.des_dout\[17\]
*993 des\.des_dout\[18\]
*994 des\.des_dout\[19\]
*995 des\.des_dout\[1\]
*996 des\.des_dout\[20\]
*997 des\.des_dout\[21\]
*998 des\.des_dout\[22\]
*999 des\.des_dout\[23\]
*1000 des\.des_dout\[2\]
*1001 des\.des_dout\[3\]
*1002 des\.des_dout\[4\]
*1003 des\.des_dout\[5\]
*1004 des\.des_dout\[6\]
*1005 des\.des_dout\[7\]
*1006 des\.des_dout\[8\]
*1007 des\.des_dout\[9\]
*1008 funct3\[0\]
*1009 funct3\[1\]
*1010 funct3\[2\]
*1011 ins_ldr_3
*1012 instr\[0\]
*1013 instr\[10\]
*1014 instr\[11\]
*1015 instr\[12\]
*1016 instr\[13\]
*1017 instr\[14\]
*1018 instr\[15\]
*1019 instr\[1\]
*1020 instr\[2\]
*1021 instr\[3\]
*1022 instr\[4\]
*1023 instr\[5\]
*1024 instr\[6\]
*1025 instr\[7\]
*1026 instr\[8\]
*1027 instr\[9\]
*1028 instr_2\[0\]
*1029 instr_2\[14\]
*1030 instr_2\[15\]
*1031 instr_2\[1\]
*1032 instr_2\[2\]
*1033 instr_2\[3\]
*1034 instr_2\[4\]
*1035 instr_2\[5\]
*1036 ldr_hzd\[0\]
*1037 ldr_hzd\[1\]
*1038 ldr_hzd\[2\]
*1039 ldr_hzd\[3\]
*1040 ldr_hzd\[4\]
*1041 ldr_hzd\[5\]
*1042 ldr_hzd\[6\]
*1043 ldr_hzd\[7\]
*1044 net1
*1045 net10
*1046 net11
*1047 net12
*1048 net13
*1049 net14
*1050 net15
*1051 net16
*1052 net17
*1053 net18
*1054 net19
*1055 net2
*1056 net20
*1057 net21
*1058 net22
*1059 net23
*1060 net24
*1061 net25
*1062 net26
*1063 net27
*1064 net28
*1065 net29
*1066 net3
*1067 net30
*1068 net31
*1069 net32
*1070 net33
*1071 net34
*1072 net35
*1073 net36
*1074 net37
*1075 net38
*1076 net39
*1077 net4
*1078 net40
*1079 net41
*1080 net42
*1081 net43
*1082 net44
*1083 net45
*1084 net46
*1085 net47
*1086 net48
*1087 net49
*1088 net5
*1089 net50
*1090 net51
*1091 net52
*1092 net6
*1093 net7
*1094 net8
*1095 net9
*1096 pc0\[0\]
*1097 pc0\[1\]
*1098 pc0\[2\]
*1099 pc0\[3\]
*1100 pc0\[4\]
*1101 pc0\[5\]
*1102 pc\[0\]
*1103 pc\[1\]
*1104 pc\[2\]
*1105 pc\[3\]
*1106 pc\[4\]
*1107 pc\[5\]
*1108 pc_1\[0\]
*1109 pc_1\[1\]
*1110 pc_1\[2\]
*1111 pc_1\[3\]
*1112 pc_1\[4\]
*1113 pc_1\[5\]
*1114 pc_2\[0\]
*1115 pc_2\[1\]
*1116 pc_2\[2\]
*1117 pc_2\[3\]
*1118 pc_2\[4\]
*1119 pc_2\[5\]
*1120 rd_3\[0\]
*1121 rd_3\[1\]
*1122 rd_3\[2\]
*1123 registers\.r1\[0\]
*1124 registers\.r1\[1\]
*1125 registers\.r1\[2\]
*1126 registers\.r1\[3\]
*1127 registers\.r1\[4\]
*1128 registers\.r1\[5\]
*1129 registers\.r1\[6\]
*1130 registers\.r1\[7\]
*1131 registers\.r2\[0\]
*1132 registers\.r2\[1\]
*1133 registers\.r2\[2\]
*1134 registers\.r2\[3\]
*1135 registers\.r2\[4\]
*1136 registers\.r2\[5\]
*1137 registers\.r2\[6\]
*1138 registers\.r2\[7\]
*1139 registers\.r3\[0\]
*1140 registers\.r3\[1\]
*1141 registers\.r3\[2\]
*1142 registers\.r3\[3\]
*1143 registers\.r3\[4\]
*1144 registers\.r3\[5\]
*1145 registers\.r3\[6\]
*1146 registers\.r3\[7\]
*1147 registers\.r4\[0\]
*1148 registers\.r4\[1\]
*1149 registers\.r4\[2\]
*1150 registers\.r4\[3\]
*1151 registers\.r4\[4\]
*1152 registers\.r4\[5\]
*1153 registers\.r4\[6\]
*1154 registers\.r4\[7\]
*1155 registers\.r5\[0\]
*1156 registers\.r5\[1\]
*1157 registers\.r5\[2\]
*1158 registers\.r5\[3\]
*1159 registers\.r5\[4\]
*1160 registers\.r5\[5\]
*1161 registers\.r5\[6\]
*1162 registers\.r5\[7\]
*1163 registers\.r6\[0\]
*1164 registers\.r6\[1\]
*1165 registers\.r6\[2\]
*1166 registers\.r6\[3\]
*1167 registers\.r6\[4\]
*1168 registers\.r6\[5\]
*1169 registers\.r6\[6\]
*1170 registers\.r6\[7\]
*1171 registers\.r7\[0\]
*1172 registers\.r7\[1\]
*1173 registers\.r7\[2\]
*1174 registers\.r7\[3\]
*1175 registers\.r7\[4\]
*1176 registers\.r7\[5\]
*1177 registers\.r7\[6\]
*1178 registers\.r7\[7\]
*1179 registers\.rs1\[0\]
*1180 registers\.rs1\[1\]
*1181 registers\.rs1\[2\]
*1182 registers\.rs2\[0\]
*1183 registers\.rs2\[1\]
*1184 valid0
*1185 valid1
*1186 valid2
*1187 valid_out3
*1188 ANTENNA_0
*1189 ANTENNA_1
*1190 ANTENNA_2
*1191 ANTENNA_3
*1192 FILLER_0_102
*1193 FILLER_0_110
*1194 FILLER_0_118
*1195 FILLER_0_130
*1196 FILLER_0_138
*1197 FILLER_0_141
*1198 FILLER_0_149
*1199 FILLER_0_153
*1200 FILLER_0_165
*1201 FILLER_0_169
*1202 FILLER_0_181
*1203 FILLER_0_19
*1204 FILLER_0_193
*1205 FILLER_0_197
*1206 FILLER_0_209
*1207 FILLER_0_221
*1208 FILLER_0_225
*1209 FILLER_0_237
*1210 FILLER_0_249
*1211 FILLER_0_253
*1212 FILLER_0_261
*1213 FILLER_0_265
*1214 FILLER_0_27
*1215 FILLER_0_277
*1216 FILLER_0_281
*1217 FILLER_0_29
*1218 FILLER_0_293
*1219 FILLER_0_35
*1220 FILLER_0_52
*1221 FILLER_0_73
*1222 FILLER_0_81
*1223 FILLER_0_85
*1224 FILLER_10_104
*1225 FILLER_10_115
*1226 FILLER_10_122
*1227 FILLER_10_126
*1228 FILLER_10_136
*1229 FILLER_10_145
*1230 FILLER_10_153
*1231 FILLER_10_160
*1232 FILLER_10_168
*1233 FILLER_10_19
*1234 FILLER_10_192
*1235 FILLER_10_203
*1236 FILLER_10_210
*1237 FILLER_10_217
*1238 FILLER_10_224
*1239 FILLER_10_235
*1240 FILLER_10_247
*1241 FILLER_10_251
*1242 FILLER_10_262
*1243 FILLER_10_268
*1244 FILLER_10_27
*1245 FILLER_10_277
*1246 FILLER_10_288
*1247 FILLER_10_295
*1248 FILLER_10_39
*1249 FILLER_10_63
*1250 FILLER_10_75
*1251 FILLER_10_83
*1252 FILLER_10_85
*1253 FILLER_10_91
*1254 FILLER_11_105
*1255 FILLER_11_111
*1256 FILLER_11_122
*1257 FILLER_11_142
*1258 FILLER_11_15
*1259 FILLER_11_164
*1260 FILLER_11_169
*1261 FILLER_11_173
*1262 FILLER_11_183
*1263 FILLER_11_191
*1264 FILLER_11_199
*1265 FILLER_11_208
*1266 FILLER_11_217
*1267 FILLER_11_223
*1268 FILLER_11_225
*1269 FILLER_11_231
*1270 FILLER_11_237
*1271 FILLER_11_241
*1272 FILLER_11_249
*1273 FILLER_11_259
*1274 FILLER_11_273
*1275 FILLER_11_279
*1276 FILLER_11_281
*1277 FILLER_11_286
*1278 FILLER_11_295
*1279 FILLER_11_3
*1280 FILLER_11_36
*1281 FILLER_11_48
*1282 FILLER_11_57
*1283 FILLER_11_69
*1284 FILLER_11_81
*1285 FILLER_11_93
*1286 FILLER_12_104
*1287 FILLER_12_117
*1288 FILLER_12_124
*1289 FILLER_12_13
*1290 FILLER_12_134
*1291 FILLER_12_141
*1292 FILLER_12_153
*1293 FILLER_12_173
*1294 FILLER_12_181
*1295 FILLER_12_192
*1296 FILLER_12_202
*1297 FILLER_12_213
*1298 FILLER_12_224
*1299 FILLER_12_232
*1300 FILLER_12_239
*1301 FILLER_12_24
*1302 FILLER_12_246
*1303 FILLER_12_258
*1304 FILLER_12_268
*1305 FILLER_12_275
*1306 FILLER_12_283
*1307 FILLER_12_29
*1308 FILLER_12_292
*1309 FILLER_12_298
*1310 FILLER_12_41
*1311 FILLER_12_59
*1312 FILLER_12_71
*1313 FILLER_12_83
*1314 FILLER_12_85
*1315 FILLER_12_91
*1316 FILLER_12_95
*1317 FILLER_12_99
*1318 FILLER_13_107
*1319 FILLER_13_111
*1320 FILLER_13_113
*1321 FILLER_13_124
*1322 FILLER_13_138
*1323 FILLER_13_152
*1324 FILLER_13_160
*1325 FILLER_13_169
*1326 FILLER_13_173
*1327 FILLER_13_195
*1328 FILLER_13_211
*1329 FILLER_13_215
*1330 FILLER_13_220
*1331 FILLER_13_225
*1332 FILLER_13_236
*1333 FILLER_13_246
*1334 FILLER_13_25
*1335 FILLER_13_255
*1336 FILLER_13_261
*1337 FILLER_13_271
*1338 FILLER_13_279
*1339 FILLER_13_289
*1340 FILLER_13_29
*1341 FILLER_13_297
*1342 FILLER_13_3
*1343 FILLER_13_46
*1344 FILLER_13_54
*1345 FILLER_13_57
*1346 FILLER_13_69
*1347 FILLER_13_81
*1348 FILLER_13_87
*1349 FILLER_14_100
*1350 FILLER_14_113
*1351 FILLER_14_117
*1352 FILLER_14_122
*1353 FILLER_14_136
*1354 FILLER_14_141
*1355 FILLER_14_153
*1356 FILLER_14_165
*1357 FILLER_14_177
*1358 FILLER_14_184
*1359 FILLER_14_188
*1360 FILLER_14_192
*1361 FILLER_14_197
*1362 FILLER_14_204
*1363 FILLER_14_217
*1364 FILLER_14_228
*1365 FILLER_14_235
*1366 FILLER_14_24
*1367 FILLER_14_248
*1368 FILLER_14_253
*1369 FILLER_14_257
*1370 FILLER_14_268
*1371 FILLER_14_285
*1372 FILLER_14_29
*1373 FILLER_14_294
*1374 FILLER_14_298
*1375 FILLER_14_3
*1376 FILLER_14_33
*1377 FILLER_14_45
*1378 FILLER_14_49
*1379 FILLER_14_7
*1380 FILLER_14_70
*1381 FILLER_14_77
*1382 FILLER_14_83
*1383 FILLER_14_85
*1384 FILLER_15_102
*1385 FILLER_15_110
*1386 FILLER_15_116
*1387 FILLER_15_129
*1388 FILLER_15_135
*1389 FILLER_15_143
*1390 FILLER_15_151
*1391 FILLER_15_156
*1392 FILLER_15_164
*1393 FILLER_15_179
*1394 FILLER_15_191
*1395 FILLER_15_195
*1396 FILLER_15_206
*1397 FILLER_15_216
*1398 FILLER_15_225
*1399 FILLER_15_23
*1400 FILLER_15_230
*1401 FILLER_15_244
*1402 FILLER_15_258
*1403 FILLER_15_270
*1404 FILLER_15_278
*1405 FILLER_15_281
*1406 FILLER_15_295
*1407 FILLER_15_3
*1408 FILLER_15_30
*1409 FILLER_15_42
*1410 FILLER_15_54
*1411 FILLER_15_78
*1412 FILLER_15_84
*1413 FILLER_15_89
*1414 FILLER_16_106
*1415 FILLER_16_126
*1416 FILLER_16_13
*1417 FILLER_16_136
*1418 FILLER_16_141
*1419 FILLER_16_145
*1420 FILLER_16_156
*1421 FILLER_16_167
*1422 FILLER_16_174
*1423 FILLER_16_181
*1424 FILLER_16_192
*1425 FILLER_16_20
*1426 FILLER_16_200
*1427 FILLER_16_213
*1428 FILLER_16_221
*1429 FILLER_16_230
*1430 FILLER_16_234
*1431 FILLER_16_241
*1432 FILLER_16_248
*1433 FILLER_16_258
*1434 FILLER_16_272
*1435 FILLER_16_280
*1436 FILLER_16_288
*1437 FILLER_16_295
*1438 FILLER_16_38
*1439 FILLER_16_71
*1440 FILLER_16_80
*1441 FILLER_16_85
*1442 FILLER_16_92
*1443 FILLER_17_105
*1444 FILLER_17_111
*1445 FILLER_17_122
*1446 FILLER_17_126
*1447 FILLER_17_134
*1448 FILLER_17_145
*1449 FILLER_17_151
*1450 FILLER_17_160
*1451 FILLER_17_169
*1452 FILLER_17_174
*1453 FILLER_17_185
*1454 FILLER_17_19
*1455 FILLER_17_193
*1456 FILLER_17_201
*1457 FILLER_17_209
*1458 FILLER_17_213
*1459 FILLER_17_217
*1460 FILLER_17_223
*1461 FILLER_17_225
*1462 FILLER_17_234
*1463 FILLER_17_242
*1464 FILLER_17_249
*1465 FILLER_17_256
*1466 FILLER_17_260
*1467 FILLER_17_269
*1468 FILLER_17_276
*1469 FILLER_17_281
*1470 FILLER_17_287
*1471 FILLER_17_294
*1472 FILLER_17_298
*1473 FILLER_17_32
*1474 FILLER_17_39
*1475 FILLER_17_51
*1476 FILLER_17_55
*1477 FILLER_17_6
*1478 FILLER_17_78
*1479 FILLER_17_91
*1480 FILLER_18_102
*1481 FILLER_18_108
*1482 FILLER_18_117
*1483 FILLER_18_12
*1484 FILLER_18_125
*1485 FILLER_18_136
*1486 FILLER_18_148
*1487 FILLER_18_159
*1488 FILLER_18_167
*1489 FILLER_18_17
*1490 FILLER_18_174
*1491 FILLER_18_181
*1492 FILLER_18_189
*1493 FILLER_18_195
*1494 FILLER_18_200
*1495 FILLER_18_213
*1496 FILLER_18_222
*1497 FILLER_18_230
*1498 FILLER_18_24
*1499 FILLER_18_242
*1500 FILLER_18_250
*1501 FILLER_18_253
*1502 FILLER_18_260
*1503 FILLER_18_271
*1504 FILLER_18_277
*1505 FILLER_18_284
*1506 FILLER_18_295
*1507 FILLER_18_32
*1508 FILLER_18_39
*1509 FILLER_18_51
*1510 FILLER_18_6
*1511 FILLER_18_63
*1512 FILLER_18_75
*1513 FILLER_18_80
*1514 FILLER_18_88
*1515 FILLER_19_107
*1516 FILLER_19_111
*1517 FILLER_19_12
*1518 FILLER_19_122
*1519 FILLER_19_140
*1520 FILLER_19_149
*1521 FILLER_19_16
*1522 FILLER_19_161
*1523 FILLER_19_167
*1524 FILLER_19_169
*1525 FILLER_19_180
*1526 FILLER_19_187
*1527 FILLER_19_193
*1528 FILLER_19_201
*1529 FILLER_19_208
*1530 FILLER_19_220
*1531 FILLER_19_225
*1532 FILLER_19_232
*1533 FILLER_19_240
*1534 FILLER_19_248
*1535 FILLER_19_259
*1536 FILLER_19_269
*1537 FILLER_19_276
*1538 FILLER_19_281
*1539 FILLER_19_29
*1540 FILLER_19_291
*1541 FILLER_19_3
*1542 FILLER_19_36
*1543 FILLER_19_43
*1544 FILLER_19_50
*1545 FILLER_19_57
*1546 FILLER_19_69
*1547 FILLER_19_75
*1548 FILLER_19_8
*1549 FILLER_19_84
*1550 FILLER_19_90
*1551 FILLER_1_103
*1552 FILLER_1_111
*1553 FILLER_1_129
*1554 FILLER_1_141
*1555 FILLER_1_15
*1556 FILLER_1_160
*1557 FILLER_1_169
*1558 FILLER_1_181
*1559 FILLER_1_193
*1560 FILLER_1_205
*1561 FILLER_1_217
*1562 FILLER_1_223
*1563 FILLER_1_225
*1564 FILLER_1_237
*1565 FILLER_1_249
*1566 FILLER_1_257
*1567 FILLER_1_264
*1568 FILLER_1_270
*1569 FILLER_1_275
*1570 FILLER_1_279
*1571 FILLER_1_281
*1572 FILLER_1_285
*1573 FILLER_1_295
*1574 FILLER_1_3
*1575 FILLER_1_32
*1576 FILLER_1_52
*1577 FILLER_1_73
*1578 FILLER_1_90
*1579 FILLER_20_100
*1580 FILLER_20_113
*1581 FILLER_20_13
*1582 FILLER_20_133
*1583 FILLER_20_139
*1584 FILLER_20_148
*1585 FILLER_20_156
*1586 FILLER_20_165
*1587 FILLER_20_192
*1588 FILLER_20_203
*1589 FILLER_20_210
*1590 FILLER_20_214
*1591 FILLER_20_225
*1592 FILLER_20_234
*1593 FILLER_20_24
*1594 FILLER_20_242
*1595 FILLER_20_248
*1596 FILLER_20_253
*1597 FILLER_20_257
*1598 FILLER_20_266
*1599 FILLER_20_273
*1600 FILLER_20_280
*1601 FILLER_20_286
*1602 FILLER_20_29
*1603 FILLER_20_294
*1604 FILLER_20_298
*1605 FILLER_20_3
*1606 FILLER_20_37
*1607 FILLER_20_44
*1608 FILLER_20_51
*1609 FILLER_20_59
*1610 FILLER_20_63
*1611 FILLER_20_7
*1612 FILLER_20_70
*1613 FILLER_20_80
*1614 FILLER_20_85
*1615 FILLER_20_89
*1616 FILLER_21_108
*1617 FILLER_21_11
*1618 FILLER_21_113
*1619 FILLER_21_120
*1620 FILLER_21_133
*1621 FILLER_21_142
*1622 FILLER_21_151
*1623 FILLER_21_159
*1624 FILLER_21_167
*1625 FILLER_21_176
*1626 FILLER_21_184
*1627 FILLER_21_189
*1628 FILLER_21_19
*1629 FILLER_21_198
*1630 FILLER_21_205
*1631 FILLER_21_213
*1632 FILLER_21_217
*1633 FILLER_21_223
*1634 FILLER_21_225
*1635 FILLER_21_23
*1636 FILLER_21_235
*1637 FILLER_21_243
*1638 FILLER_21_252
*1639 FILLER_21_258
*1640 FILLER_21_262
*1641 FILLER_21_276
*1642 FILLER_21_290
*1643 FILLER_21_298
*1644 FILLER_21_3
*1645 FILLER_21_33
*1646 FILLER_21_43
*1647 FILLER_21_52
*1648 FILLER_21_57
*1649 FILLER_21_62
*1650 FILLER_21_7
*1651 FILLER_21_75
*1652 FILLER_21_88
*1653 FILLER_22_103
*1654 FILLER_22_111
*1655 FILLER_22_128
*1656 FILLER_22_132
*1657 FILLER_22_136
*1658 FILLER_22_150
*1659 FILLER_22_158
*1660 FILLER_22_16
*1661 FILLER_22_169
*1662 FILLER_22_180
*1663 FILLER_22_190
*1664 FILLER_22_197
*1665 FILLER_22_207
*1666 FILLER_22_214
*1667 FILLER_22_223
*1668 FILLER_22_230
*1669 FILLER_22_24
*1670 FILLER_22_240
*1671 FILLER_22_247
*1672 FILLER_22_251
*1673 FILLER_22_259
*1674 FILLER_22_267
*1675 FILLER_22_284
*1676 FILLER_22_29
*1677 FILLER_22_295
*1678 FILLER_22_3
*1679 FILLER_22_40
*1680 FILLER_22_54
*1681 FILLER_22_67
*1682 FILLER_22_80
*1683 FILLER_22_89
*1684 FILLER_22_9
*1685 FILLER_23_108
*1686 FILLER_23_116
*1687 FILLER_23_12
*1688 FILLER_23_120
*1689 FILLER_23_130
*1690 FILLER_23_142
*1691 FILLER_23_150
*1692 FILLER_23_157
*1693 FILLER_23_164
*1694 FILLER_23_169
*1695 FILLER_23_176
*1696 FILLER_23_193
*1697 FILLER_23_203
*1698 FILLER_23_218
*1699 FILLER_23_225
*1700 FILLER_23_229
*1701 FILLER_23_236
*1702 FILLER_23_249
*1703 FILLER_23_25
*1704 FILLER_23_260
*1705 FILLER_23_267
*1706 FILLER_23_274
*1707 FILLER_23_284
*1708 FILLER_23_290
*1709 FILLER_23_294
*1710 FILLER_23_298
*1711 FILLER_23_32
*1712 FILLER_23_45
*1713 FILLER_23_52
*1714 FILLER_23_66
*1715 FILLER_23_80
*1716 FILLER_23_94
*1717 FILLER_24_110
*1718 FILLER_24_117
*1719 FILLER_24_13
*1720 FILLER_24_130
*1721 FILLER_24_138
*1722 FILLER_24_146
*1723 FILLER_24_155
*1724 FILLER_24_167
*1725 FILLER_24_180
*1726 FILLER_24_184
*1727 FILLER_24_19
*1728 FILLER_24_191
*1729 FILLER_24_195
*1730 FILLER_24_200
*1731 FILLER_24_211
*1732 FILLER_24_221
*1733 FILLER_24_23
*1734 FILLER_24_234
*1735 FILLER_24_246
*1736 FILLER_24_261
*1737 FILLER_24_265
*1738 FILLER_24_27
*1739 FILLER_24_273
*1740 FILLER_24_29
*1741 FILLER_24_295
*1742 FILLER_24_33
*1743 FILLER_24_43
*1744 FILLER_24_47
*1745 FILLER_24_51
*1746 FILLER_24_64
*1747 FILLER_24_68
*1748 FILLER_24_79
*1749 FILLER_24_83
*1750 FILLER_24_90
*1751 FILLER_25_102
*1752 FILLER_25_110
*1753 FILLER_25_129
*1754 FILLER_25_14
*1755 FILLER_25_144
*1756 FILLER_25_156
*1757 FILLER_25_164
*1758 FILLER_25_174
*1759 FILLER_25_18
*1760 FILLER_25_185
*1761 FILLER_25_196
*1762 FILLER_25_202
*1763 FILLER_25_21
*1764 FILLER_25_213
*1765 FILLER_25_220
*1766 FILLER_25_225
*1767 FILLER_25_233
*1768 FILLER_25_241
*1769 FILLER_25_250
*1770 FILLER_25_254
*1771 FILLER_25_261
*1772 FILLER_25_265
*1773 FILLER_25_269
*1774 FILLER_25_276
*1775 FILLER_25_281
*1776 FILLER_25_295
*1777 FILLER_25_3
*1778 FILLER_25_32
*1779 FILLER_25_39
*1780 FILLER_25_52
*1781 FILLER_25_64
*1782 FILLER_25_68
*1783 FILLER_25_85
*1784 FILLER_25_91
*1785 FILLER_26_113
*1786 FILLER_26_120
*1787 FILLER_26_128
*1788 FILLER_26_136
*1789 FILLER_26_14
*1790 FILLER_26_141
*1791 FILLER_26_153
*1792 FILLER_26_166
*1793 FILLER_26_173
*1794 FILLER_26_179
*1795 FILLER_26_187
*1796 FILLER_26_195
*1797 FILLER_26_20
*1798 FILLER_26_200
*1799 FILLER_26_211
*1800 FILLER_26_224
*1801 FILLER_26_237
*1802 FILLER_26_24
*1803 FILLER_26_248
*1804 FILLER_26_253
*1805 FILLER_26_262
*1806 FILLER_26_272
*1807 FILLER_26_281
*1808 FILLER_26_29
*1809 FILLER_26_290
*1810 FILLER_26_298
*1811 FILLER_26_3
*1812 FILLER_26_33
*1813 FILLER_26_46
*1814 FILLER_26_53
*1815 FILLER_26_62
*1816 FILLER_26_76
*1817 FILLER_26_85
*1818 FILLER_26_96
*1819 FILLER_27_10
*1820 FILLER_27_107
*1821 FILLER_27_111
*1822 FILLER_27_113
*1823 FILLER_27_118
*1824 FILLER_27_131
*1825 FILLER_27_140
*1826 FILLER_27_146
*1827 FILLER_27_156
*1828 FILLER_27_160
*1829 FILLER_27_164
*1830 FILLER_27_169
*1831 FILLER_27_178
*1832 FILLER_27_198
*1833 FILLER_27_208
*1834 FILLER_27_218
*1835 FILLER_27_225
*1836 FILLER_27_233
*1837 FILLER_27_245
*1838 FILLER_27_254
*1839 FILLER_27_267
*1840 FILLER_27_276
*1841 FILLER_27_284
*1842 FILLER_27_290
*1843 FILLER_27_295
*1844 FILLER_27_3
*1845 FILLER_27_30
*1846 FILLER_27_37
*1847 FILLER_27_41
*1848 FILLER_27_52
*1849 FILLER_27_60
*1850 FILLER_27_70
*1851 FILLER_27_83
*1852 FILLER_28_121
*1853 FILLER_28_129
*1854 FILLER_28_13
*1855 FILLER_28_136
*1856 FILLER_28_141
*1857 FILLER_28_150
*1858 FILLER_28_154
*1859 FILLER_28_162
*1860 FILLER_28_177
*1861 FILLER_28_185
*1862 FILLER_28_192
*1863 FILLER_28_202
*1864 FILLER_28_213
*1865 FILLER_28_224
*1866 FILLER_28_231
*1867 FILLER_28_237
*1868 FILLER_28_24
*1869 FILLER_28_241
*1870 FILLER_28_248
*1871 FILLER_28_260
*1872 FILLER_28_264
*1873 FILLER_28_273
*1874 FILLER_28_295
*1875 FILLER_28_3
*1876 FILLER_28_32
*1877 FILLER_28_41
*1878 FILLER_28_63
*1879 FILLER_28_7
*1880 FILLER_28_71
*1881 FILLER_28_80
*1882 FILLER_28_85
*1883 FILLER_28_89
*1884 FILLER_28_97
*1885 FILLER_29_103
*1886 FILLER_29_111
*1887 FILLER_29_113
*1888 FILLER_29_117
*1889 FILLER_29_127
*1890 FILLER_29_136
*1891 FILLER_29_140
*1892 FILLER_29_150
*1893 FILLER_29_162
*1894 FILLER_29_176
*1895 FILLER_29_196
*1896 FILLER_29_20
*1897 FILLER_29_212
*1898 FILLER_29_220
*1899 FILLER_29_232
*1900 FILLER_29_236
*1901 FILLER_29_247
*1902 FILLER_29_266