*SPEF "ieee 1481-1999"
*DESIGN "c_tt2_mrcs_test"
*DATE "11:11:11 Fri 11 11, 1111"
*VENDOR "OpenRCX"
*PROGRAM "Parallel Extraction"
*VERSION "1.0"
*DESIGN_FLOW "NAME_SCOPE LOCAL" "PIN_CAP NONE"
*DIVIDER /
*DELIMITER :
*BUS_DELIMITER []
*T_UNIT 1 NS
*C_UNIT 1 PF
*R_UNIT 1 OHM
*L_UNIT 1 HENRY

*NAME_MAP
*1 io_in[0]
*2 io_in[1]
*3 io_in[2]
*4 io_in[3]
*5 io_in[4]
*6 io_in[5]
*7 io_in[6]
*8 io_in[7]
*9 io_out[0]
*10 io_out[1]
*11 io_out[2]
*12 io_out[3]
*13 io_out[4]
*14 io_out[5]
*15 io_out[6]
*16 net2
*19 SavedGate_0\.SavedGate_0\.SavedGate_0\.LogicGate_0\.out_0
*20 SavedGate_0\.SavedGate_1\.SavedGate_0\.LogicGate_0\.in_0
*21 SavedGate_0\.SavedGate_1\.SavedGate_0\.LogicGate_0\.out_0
*22 SavedGate_1\.LogicGate_0\.in_0
*23 SavedGate_2\.SavedGate_0\.LogicGate_0\.in_0
*24 SavedGate_2\.SavedGate_0\.LogicGate_0\.out_0
*25 SavedGate_4\.LogicGate_0\.in_0
*26 SavedGate_4\.LogicGate_0\.out_0
*27 _00_
*28 _01_
*29 _02_
*30 _03_
*31 _04_
*32 clknet_0_SavedGate_0\.SavedGate_0\.SavedGate_0\.LogicGate_0\.out_0
*33 clknet_0_SavedGate_0\.SavedGate_1\.SavedGate_0\.LogicGate_0\.in_0
*34 clknet_0_SavedGate_1\.LogicGate_0\.in_0
*35 clknet_0_SavedGate_2\.SavedGate_0\.LogicGate_0\.in_0
*36 clknet_0_SavedGate_4\.LogicGate_0\.in_0
*37 clknet_0_SavedGate_4\.LogicGate_0\.out_0
*38 clknet_0__01_
*39 clknet_0__02_
*40 clknet_0__04_
*41 clknet_0_io_in[0]
*42 clknet_1_0__leaf_SavedGate_0\.SavedGate_0\.SavedGate_0\.LogicGate_0\.out_0
*43 clknet_1_0__leaf_SavedGate_0\.SavedGate_1\.SavedGate_0\.LogicGate_0\.in_0
*44 clknet_1_0__leaf_SavedGate_1\.LogicGate_0\.in_0
*45 clknet_1_0__leaf_SavedGate_2\.SavedGate_0\.LogicGate_0\.in_0
*46 clknet_1_0__leaf_SavedGate_4\.LogicGate_0\.in_0
*47 clknet_1_0__leaf_SavedGate_4\.LogicGate_0\.out_0
*48 clknet_1_0__leaf__01_
*49 clknet_1_0__leaf__02_
*50 clknet_1_0__leaf__04_
*51 clknet_1_0__leaf_io_in[0]
*52 clknet_1_1__leaf_SavedGate_0\.SavedGate_0\.SavedGate_0\.LogicGate_0\.out_0
*53 clknet_1_1__leaf_SavedGate_0\.SavedGate_1\.SavedGate_0\.LogicGate_0\.in_0
*54 clknet_1_1__leaf_SavedGate_1\.LogicGate_0\.in_0
*55 clknet_1_1__leaf_SavedGate_2\.SavedGate_0\.LogicGate_0\.in_0
*56 clknet_1_1__leaf_SavedGate_4\.LogicGate_0\.in_0
*57 clknet_1_1__leaf_SavedGate_4\.LogicGate_0\.out_0
*58 clknet_1_1__leaf__01_
*59 clknet_1_1__leaf__02_
*60 clknet_1_1__leaf__04_
*61 clknet_1_1__leaf_io_in[0]
*62 net1
*63 FILLER_0_109
*64 FILLER_0_113
*65 FILLER_0_125
*66 FILLER_0_137
*67 FILLER_0_141
*68 FILLER_0_15
*69 FILLER_0_153
*70 FILLER_0_165
*71 FILLER_0_169
*72 FILLER_0_181
*73 FILLER_0_193
*74 FILLER_0_197
*75 FILLER_0_209
*76 FILLER_0_221
*77 FILLER_0_225
*78 FILLER_0_237
*79 FILLER_0_249
*80 FILLER_0_253
*81 FILLER_0_265
*82 FILLER_0_27
*83 FILLER_0_277
*84 FILLER_0_281
*85 FILLER_0_29
*86 FILLER_0_293
*87 FILLER_0_3
*88 FILLER_0_41
*89 FILLER_0_53
*90 FILLER_0_57
*91 FILLER_0_69
*92 FILLER_0_81
*93 FILLER_0_85
*94 FILLER_0_97
*95 FILLER_10_109
*96 FILLER_10_121
*97 FILLER_10_133
*98 FILLER_10_139
*99 FILLER_10_141
*100 FILLER_10_15
*101 FILLER_10_153
*102 FILLER_10_165
*103 FILLER_10_177
*104 FILLER_10_189
*105 FILLER_10_195
*106 FILLER_10_197
*107 FILLER_10_209
*108 FILLER_10_221
*109 FILLER_10_233
*110 FILLER_10_245
*111 FILLER_10_251
*112 FILLER_10_253
*113 FILLER_10_265
*114 FILLER_10_27
*115 FILLER_10_277
*116 FILLER_10_289
*117 FILLER_10_29
*118 FILLER_10_297
*119 FILLER_10_3
*120 FILLER_10_41
*121 FILLER_10_53
*122 FILLER_10_65
*123 FILLER_10_77
*124 FILLER_10_83
*125 FILLER_10_85
*126 FILLER_10_97
*127 FILLER_11_105
*128 FILLER_11_111
*129 FILLER_11_113
*130 FILLER_11_125
*131 FILLER_11_137
*132 FILLER_11_149
*133 FILLER_11_15
*134 FILLER_11_161
*135 FILLER_11_167
*136 FILLER_11_169
*137 FILLER_11_181
*138 FILLER_11_193
*139 FILLER_11_205
*140 FILLER_11_217
*141 FILLER_11_223
*142 FILLER_11_225
*143 FILLER_11_237
*144 FILLER_11_249
*145 FILLER_11_261
*146 FILLER_11_27
*147 FILLER_11_273
*148 FILLER_11_279
*149 FILLER_11_281
*150 FILLER_11_293
*151 FILLER_11_3
*152 FILLER_11_39
*153 FILLER_11_51
*154 FILLER_11_55
*155 FILLER_11_57
*156 FILLER_11_69
*157 FILLER_11_81
*158 FILLER_11_93
*159 FILLER_12_109
*160 FILLER_12_121
*161 FILLER_12_133
*162 FILLER_12_139
*163 FILLER_12_141
*164 FILLER_12_15
*165 FILLER_12_153
*166 FILLER_12_165
*167 FILLER_12_177
*168 FILLER_12_189
*169 FILLER_12_195
*170 FILLER_12_197
*171 FILLER_12_209
*172 FILLER_12_221
*173 FILLER_12_233
*174 FILLER_12_245
*175 FILLER_12_251
*176 FILLER_12_253
*177 FILLER_12_265
*178 FILLER_12_27
*179 FILLER_12_277
*180 FILLER_12_289
*181 FILLER_12_29
*182 FILLER_12_297
*183 FILLER_12_3
*184 FILLER_12_41
*185 FILLER_12_53
*186 FILLER_12_65
*187 FILLER_12_77
*188 FILLER_12_83
*189 FILLER_12_85
*190 FILLER_12_97
*191 FILLER_13_105
*192 FILLER_13_111
*193 FILLER_13_113
*194 FILLER_13_125
*195 FILLER_13_137
*196 FILLER_13_149
*197 FILLER_13_15
*198 FILLER_13_161
*199 FILLER_13_167
*200 FILLER_13_169
*201 FILLER_13_181
*202 FILLER_13_193
*203 FILLER_13_205
*204 FILLER_13_217
*205 FILLER_13_223
*206 FILLER_13_225
*207 FILLER_13_237
*208 FILLER_13_249
*209 FILLER_13_261
*210 FILLER_13_27
*211 FILLER_13_273
*212 FILLER_13_279
*213 FILLER_13_281
*214 FILLER_13_293
*215 FILLER_13_3
*216 FILLER_13_39
*217 FILLER_13_51
*218 FILLER_13_55
*219 FILLER_13_57
*220 FILLER_13_69
*221 FILLER_13_81
*222 FILLER_13_93
*223 FILLER_14_109
*224 FILLER_14_121
*225 FILLER_14_133
*226 FILLER_14_139
*227 FILLER_14_141
*228 FILLER_14_15
*229 FILLER_14_153
*230 FILLER_14_165
*231 FILLER_14_177
*232 FILLER_14_189
*233 FILLER_14_195
*234 FILLER_14_197
*235 FILLER_14_209
*236 FILLER_14_221
*237 FILLER_14_233
*238 FILLER_14_245
*239 FILLER_14_251
*240 FILLER_14_253
*241 FILLER_14_265
*242 FILLER_14_27
*243 FILLER_14_277
*244 FILLER_14_289
*245 FILLER_14_29
*246 FILLER_14_297
*247 FILLER_14_3
*248 FILLER_14_41
*249 FILLER_14_53
*250 FILLER_14_65
*251 FILLER_14_77
*252 FILLER_14_83
*253 FILLER_14_85
*254 FILLER_14_97
*255 FILLER_15_105
*256 FILLER_15_111
*257 FILLER_15_113
*258 FILLER_15_125
*259 FILLER_15_137
*260 FILLER_15_149
*261 FILLER_15_15
*262 FILLER_15_161
*263 FILLER_15_167
*264 FILLER_15_169
*265 FILLER_15_181
*266 FILLER_15_193
*267 FILLER_15_205
*268 FILLER_15_217
*269 FILLER_15_223
*270 FILLER_15_225
*271 FILLER_15_237
*272 FILLER_15_249
*273 FILLER_15_261
*274 FILLER_15_27
*275 FILLER_15_273
*276 FILLER_15_279
*277 FILLER_15_281
*278 FILLER_15_293
*279 FILLER_15_3
*280 FILLER_15_39
*281 FILLER_15_51
*282 FILLER_15_55
*283 FILLER_15_57
*284 FILLER_15_69
*285 FILLER_15_81
*286 FILLER_15_93
*287 FILLER_16_109
*288 FILLER_16_121
*289 FILLER_16_133
*290 FILLER_16_139
*291 FILLER_16_141
*292 FILLER_16_15
*293 FILLER_16_153
*294 FILLER_16_165
*295 FILLER_16_177
*296 FILLER_16_189
*297 FILLER_16_195
*298 FILLER_16_197
*299 FILLER_16_209
*300 FILLER_16_221
*301 FILLER_16_233
*302 FILLER_16_245
*303 FILLER_16_251
*304 FILLER_16_253
*305 FILLER_16_265
*306 FILLER_16_27
*307 FILLER_16_277
*308 FILLER_16_289
*309 FILLER_16_29
*310 FILLER_16_297
*311 FILLER_16_3
*312 FILLER_16_41
*313 FILLER_16_53
*314 FILLER_16_65
*315 FILLER_16_77
*316 FILLER_16_83
*317 FILLER_16_85
*318 FILLER_16_97
*319 FILLER_17_105
*320 FILLER_17_111
*321 FILLER_17_113
*322 FILLER_17_125
*323 FILLER_17_137
*324 FILLER_17_149
*325 FILLER_17_15
*326 FILLER_17_161
*327 FILLER_17_167
*328 FILLER_17_169
*329 FILLER_17_181
*330 FILLER_17_193
*331 FILLER_17_205
*332 FILLER_17_217
*333 FILLER_17_223
*334 FILLER_17_225
*335 FILLER_17_237
*336 FILLER_17_249
*337 FILLER_17_261
*338 FILLER_17_27
*339 FILLER_17_273
*340 FILLER_17_279
*341 FILLER_17_281
*342 FILLER_17_293
*343 FILLER_17_3
*344 FILLER_17_39
*345 FILLER_17_51
*346 FILLER_17_55
*347 FILLER_17_57
*348 FILLER_17_69
*349 FILLER_17_81
*350 FILLER_17_93
*351 FILLER_18_109
*352 FILLER_18_121
*353 FILLER_18_133
*354 FILLER_18_139
*355 FILLER_18_141
*356 FILLER_18_15
*357 FILLER_18_153
*358 FILLER_18_165
*359 FILLER_18_177
*360 FILLER_18_189
*361 FILLER_18_195
*362 FILLER_18_197
*363 FILLER_18_209
*364 FILLER_18_221
*365 FILLER_18_233
*366 FILLER_18_245
*367 FILLER_18_251
*368 FILLER_18_253
*369 FILLER_18_265
*370 FILLER_18_27
*371 FILLER_18_277
*372 FILLER_18_289
*373 FILLER_18_29
*374 FILLER_18_297
*375 FILLER_18_3
*376 FILLER_18_41
*377 FILLER_18_53
*378 FILLER_18_65
*379 FILLER_18_77
*380 FILLER_18_83
*381 FILLER_18_85
*382 FILLER_18_97
*383 FILLER_19_105
*384 FILLER_19_111
*385 FILLER_19_113
*386 FILLER_19_125
*387 FILLER_19_137
*388 FILLER_19_149
*389 FILLER_19_15
*390 FILLER_19_161
*391 FILLER_19_167
*392 FILLER_19_169
*393 FILLER_19_181
*394 FILLER_19_193
*395 FILLER_19_205
*396 FILLER_19_217
*397 FILLER_19_223
*398 FILLER_19_225
*399 FILLER_19_237
*400 FILLER_19_249
*401 FILLER_19_261
*402 FILLER_19_27
*403 FILLER_19_273
*404 FILLER_19_279
*405 FILLER_19_281
*406 FILLER_19_293
*407 FILLER_19_3
*408 FILLER_19_39
*409 FILLER_19_51
*410 FILLER_19_55
*411 FILLER_19_57
*412 FILLER_19_69
*413 FILLER_19_81
*414 FILLER_19_93
*415 FILLER_1_105
*416 FILLER_1_111
*417 FILLER_1_113
*418 FILLER_1_125
*419 FILLER_1_137
*420 FILLER_1_149
*421 FILLER_1_15
*422 FILLER_1_161
*423 FILLER_1_167
*424 FILLER_1_169
*425 FILLER_1_181
*426 FILLER_1_193
*427 FILLER_1_205
*428 FILLER_1_217
*429 FILLER_1_223
*430 FILLER_1_225
*431 FILLER_1_237
*432 FILLER_1_249
*433 FILLER_1_261
*434 FILLER_1_27
*435 FILLER_1_273
*436 FILLER_1_279
*437 FILLER_1_281
*438 FILLER_1_293
*439 FILLER_1_3
*440 FILLER_1_39
*441 FILLER_1_51
*442 FILLER_1_55
*443 FILLER_1_57
*444 FILLER_1_69
*445 FILLER_1_81
*446 FILLER_1_93
*447 FILLER_20_109
*448 FILLER_20_121
*449 FILLER_20_133
*450 FILLER_20_139
*451 FILLER_20_141
*452 FILLER_20_15
*453 FILLER_20_153
*454 FILLER_20_165
*455 FILLER_20_177
*456 FILLER_20_189
*457 FILLER_20_195
*458 FILLER_20_197
*459 FILLER_20_209
*460 FILLER_20_221
*461 FILLER_20_233
*462 FILLER_20_245
*463 FILLER_20_251
*464 FILLER_20_253
*465 FILLER_20_265
*466 FILLER_20_27
*467 FILLER_20_277
*468 FILLER_20_289
*469 FILLER_20_29
*470 FILLER_20_297
*471 FILLER_20_3
*472 FILLER_20_41
*473 FILLER_20_53
*474 FILLER_20_65
*475 FILLER_20_77
*476 FILLER_20_83
*477 FILLER_20_85
*478 FILLER_20_97
*479 FILLER_21_105
*480 FILLER_21_111
*481 FILLER_21_113
*482 FILLER_21_125
*483 FILLER_21_137
*484 FILLER_21_149
*485 FILLER_21_15
*486 FILLER_21_161
*487 FILLER_21_167
*488 FILLER_21_169
*489 FILLER_21_181
*490 FILLER_21_193
*491 FILLER_21_205
*492 FILLER_21_217
*493 FILLER_21_223
*494 FILLER_21_225
*495 FILLER_21_237
*496 FILLER_21_249
*497 FILLER_21_261
*498 FILLER_21_27
*499 FILLER_21_273
*500 FILLER_21_279
*501 FILLER_21_281
*502 FILLER_21_293
*503 FILLER_21_3
*504 FILLER_21_39
*505 FILLER_21_51
*506 FILLER_21_55
*507 FILLER_21_57
*508 FILLER_21_69
*509 FILLER_21_81
*510 FILLER_21_93
*511 FILLER_22_109
*512 FILLER_22_121
*513 FILLER_22_133
*514 FILLER_22_139
*515 FILLER_22_141
*516 FILLER_22_153
*517 FILLER_22_165
*518 FILLER_22_177
*519 FILLER_22_189
*520 FILLER_22_195
*521 FILLER_22_197
*522 FILLER_22_209
*523 FILLER_22_221
*524 FILLER_22_233
*525 FILLER_22_24
*526 FILLER_22_245
*527 FILLER_22_251
*528 FILLER_22_253
*529 FILLER_22_265
*530 FILLER_22_277
*531 FILLER_22_289
*532 FILLER_22_29
*533 FILLER_22_297
*534 FILLER_22_3
*535 FILLER_22_41
*536 FILLER_22_53
*537 FILLER_22_65
*538 FILLER_22_77
*539 FILLER_22_83
*540 FILLER_22_85
*541 FILLER_22_97
*542 FILLER_23_105
*543 FILLER_23_111
*544 FILLER_23_113
*545 FILLER_23_125
*546 FILLER_23_137
*547 FILLER_23_149
*548 FILLER_23_15
*549 FILLER_23_161
*550 FILLER_23_167
*551 FILLER_23_169
*552 FILLER_23_181
*553 FILLER_23_193
*554 FILLER_23_205
*555 FILLER_23_217
*556 FILLER_23_223
*557 FILLER_23_225
*558 FILLER_23_237
*559 FILLER_23_249
*560 FILLER_23_261
*561 FILLER_23_27
*562 FILLER_23_273
*563 FILLER_23_279
*564 FILLER_23_281
*565 FILLER_23_293
*566 FILLER_23_3
*567 FILLER_23_39
*568 FILLER_23_51
*569 FILLER_23_55
*570 FILLER_23_57
*571 FILLER_23_69
*572 FILLER_23_81
*573 FILLER_23_93
*574 FILLER_24_109
*575 FILLER_24_121
*576 FILLER_24_133
*577 FILLER_24_139
*578 FILLER_24_141
*579 FILLER_24_15
*580 FILLER_24_153
*581 FILLER_24_165
*582 FILLER_24_177
*583 FILLER_24_189
*584 FILLER_24_195
*585 FILLER_24_197
*586 FILLER_24_209
*587 FILLER_24_221
*588 FILLER_24_233
*589 FILLER_24_245
*590 FILLER_24_251
*591 FILLER_24_253
*592 FILLER_24_265
*593 FILLER_24_27
*594 FILLER_24_277
*595 FILLER_24_289
*596 FILLER_24_29
*597 FILLER_24_297
*598 FILLER_24_3
*599 FILLER_24_41
*600 FILLER_24_53
*601 FILLER_24_65
*602 FILLER_24_77
*603 FILLER_24_83
*604 FILLER_24_85
*605 FILLER_24_97
*606 FILLER_25_105
*607 FILLER_25_111
*608 FILLER_25_113
*609 FILLER_25_125
*610 FILLER_25_137
*611 FILLER_25_149
*612 FILLER_25_15
*613 FILLER_25_161
*614 FILLER_25_167
*615 FILLER_25_169
*616 FILLER_25_181
*617 FILLER_25_193
*618 FILLER_25_205
*619 FILLER_25_217
*620 FILLER_25_223
*621 FILLER_25_225
*622 FILLER_25_237
*623 FILLER_25_249
*624 FILLER_25_261
*625 FILLER_25_27
*626 FILLER_25_273
*627 FILLER_25_279
*628 FILLER_25_281
*629 FILLER_25_293
*630 FILLER_25_3
*631 FILLER_25_39
*632 FILLER_25_51
*633 FILLER_25_55
*634 FILLER_25_57
*635 FILLER_25_69
*636 FILLER_25_81
*637 FILLER_25_93
*638 FILLER_26_109
*639 FILLER_26_121
*640 FILLER_26_133
*641 FILLER_26_139
*642 FILLER_26_141
*643 FILLER_26_15
*644 FILLER_26_153
*645 FILLER_26_165
*646 FILLER_26_177
*647 FILLER_26_189
*648 FILLER_26_195
*649 FILLER_26_197
*650 FILLER_26_209
*651 FILLER_26_221
*652 FILLER_26_233
*653 FILLER_26_245
*654 FILLER_26_251
*655 FILLER_26_253
*656 FILLER_26_265
*657 FILLER_26_27
*658 FILLER_26_277
*659 FILLER_26_289
*660 FILLER_26_29
*661 FILLER_26_297
*662 FILLER_26_3
*663 FILLER_26_41
*664 FILLER_26_53
*665 FILLER_26_65
*666 FILLER_26_77
*667 FILLER_26_83
*668 FILLER_26_85
*669 FILLER_26_97
*670 FILLER_27_105
*671 FILLER_27_111
*672 FILLER_27_113
*673 FILLER_27_125
*674 FILLER_27_137
*675 FILLER_27_149
*676 FILLER_27_15
*677 FILLER_27_161
*678 FILLER_27_167
*679 FILLER_27_169
*680 FILLER_27_181
*681 FILLER_27_193
*682 FILLER_27_205
*683 FILLER_27_217
*684 FILLER_27_223
*685 FILLER_27_225
*686 FILLER_27_237
*687 FILLER_27_249
*688 FILLER_27_261
*689 FILLER_27_27
*690 FILLER_27_273
*691 FILLER_27_279
*692 FILLER_27_281
*693 FILLER_27_293
*694 FILLER_27_3
*695 FILLER_27_39
*696 FILLER_27_51
*697 FILLER_27_55
*698 FILLER_27_57
*699 FILLER_27_69
*700 FILLER_27_81
*701 FILLER_27_93
*702 FILLER_28_109
*703 FILLER_28_121
*704 FILLER_28_133
*705 FILLER_28_139
*706 FILLER_28_141
*707 FILLER_28_153
*708 FILLER_28_165
*709 FILLER_28_177
*710 FILLER_28_189
*711 FILLER_28_195
*712 FILLER_28_197
*713 FILLER_28_209
*714 FILLER_28_221
*715 FILLER_28_233
*716 FILLER_28_24
*717 FILLER_28_245
*718 FILLER_28_251
*719 FILLER_28_253
*720 FILLER_28_265
*721 FILLER_28_277
*722 FILLER_28_289
*723 FILLER_28_29
*724 FILLER_28_297
*725 FILLER_28_3
*726 FILLER_28_41
*727 FILLER_28_53
*728 FILLER_28_65
*729 FILLER_28_77
*730 FILLER_28_83
*731 FILLER_28_85
*732 FILLER_28_97
*733 FILLER_29_105
*734 FILLER_29_111
*735 FILLER_29_113
*736 FILLER_29_125
*737 FILLER_29_137
*738 FILLER_29_149
*739 FILLER_29_161
*740 FILLER_29_167
*741 FILLER_29_169
*742 FILLER_29_181
*743 FILLER_29_193
*744 FILLER_29_205
*745 FILLER_29_217
*746 FILLER_29_223
*747 FILLER_29_225
*748 FILLER_29_237
*749 FILLER_29_249
*750 FILLER_29_261
*751 FILLER_29_27
*752 FILLER_29_273
*753 FILLER_29_279
*754 FILLER_29_281
*755 FILLER_29_293
*756 FILLER_29_3
*757 FILLER_29_39
*758 FILLER_29_51
*759 FILLER_29_55
*760 FILLER_29_57
*761 FILLER_29_69
*762 FILLER_29_81
*763 FILLER_29_93
*764 FILLER_2_109
*765 FILLER_2_121
*766 FILLER_2_133
*767 FILLER_2_139
*768 FILLER_2_141
*769 FILLER_2_15
*770 FILLER_2_153
*771 FILLER_2_165
*772 FILLER_2_177
*773 FILLER_2_189
*774 FILLER_2_195
*775 FILLER_2_197
*776 FILLER_2_209
*777 FILLER_2_221
*778 FILLER_2_233
*779 FILLER_2_245
*780 FILLER_2_251
*781 FILLER_2_253
*782 FILLER_2_265
*783 FILLER_2_27
*784 FILLER_2_277
*785 FILLER_2_289
*786 FILLER_2_29
*787 FILLER_2_297
*788 FILLER_2_3
*789 FILLER_2_41
*790 FILLER_2_53
*791 FILLER_2_65
*792 FILLER_2_77
*793 FILLER_2_83
*794 FILLER_2_85
*795 FILLER_2_97
*796 FILLER_30_109
*797 FILLER_30_121
*798 FILLER_30_133
*799 FILLER_30_139
*800 FILLER_30_141
*801 FILLER_30_153
*802 FILLER_30_165
*803 FILLER_30_177
*804 FILLER_30_189
*805 FILLER_30_195
*806 FILLER_30_197
*807 FILLER_30_209
*808 FILLER_30_221
*809 FILLER_30_233
*810 FILLER_30_24
*811 FILLER_30_245
*812 FILLER_30_251
*813 FILLER_30_253
*814 FILLER_30_265
*815 FILLER_30_277
*816 FILLER_30_289
*817 FILLER_30_297
*818 FILLER_30_3
*819 FILLER_30_38
*820 FILLER_30_50
*821 FILLER_30_62
*822 FILLER_30_74
*823 FILLER_30_82
*824 FILLER_30_85
*825 FILLER_30_97
*826 FILLER_31_105
*827 FILLER_31_111
*828 FILLER_31_113
*829 FILLER_31_125
*830 FILLER_31_137
*831 FILLER_31_149
*832 FILLER_31_161
*833 FILLER_31_167
*834 FILLER_31_169
*835 FILLER_31_181
*836 FILLER_31_193
*837 FILLER_31_205
*838 FILLER_31_217
*839 FILLER_31_223
*840 FILLER_31_225
*841 FILLER_31_237
*842 FILLER_31_249
*843 FILLER_31_261
*844 FILLER_31_27
*845 FILLER_31_273
*846 FILLER_31_279
*847 FILLER_31_281
*848 FILLER_31_293
*849 FILLER_31_3
*850 FILLER_31_51
*851 FILLER_31_55
*852 FILLER_31_57
*853 FILLER_31_69
*854 FILLER_31_81
*855 FILLER_31_93
*856 FILLER_32_109
*857 FILLER_32_121
*858 FILLER_32_133
*859 FILLER_32_139
*860 FILLER_32_141
*861 FILLER_32_153
*862 FILLER_32_165
*863 FILLER_32_177
*864 FILLER_32_189
*865 FILLER_32_195
*866 FILLER_32_197
*867 FILLER_32_209
*868 FILLER_32_221
*869 FILLER_32_233
*870 FILLER_32_24
*871 FILLER_32_245
*872 FILLER_32_251
*873 FILLER_32_253
*874 FILLER_32_265
*875 FILLER_32_277
*876 FILLER_32_289
*877 FILLER_32_297
*878 FILLER_32_3
*879 FILLER_32_32
*880 FILLER_32_44
*881 FILLER_32_56
*882 FILLER_32_68
*883 FILLER_32_80
*884 FILLER_32_85
*885 FILLER_32_97
*886 FILLER_33_105
*887 FILLER_33_111
*888 FILLER_33_113
*889 FILLER_33_125
*890 FILLER_33_137
*891 FILLER_33_149
*892 FILLER_33_161
*893 FILLER_33_167
*894 FILLER_33_169
*895 FILLER_33_181
*896 FILLER_33_193
*897 FILLER_33_205
*898 FILLER_33_217
*899 FILLER_33_223
*900 FILLER_33_225
*901 FILLER_33_237
*902 FILLER_33_249
*903 FILLER_33_261
*904 FILLER_33_273
*905 FILLER_33_279
*906 FILLER_33_281
*907 FILLER_33_293
*908 FILLER_33_31
*909 FILLER_33_39
*910 FILLER_33_51
*911 FILLER_33_55
*912 FILLER_33_57
*913 FILLER_33_69
*914 FILLER_33_7
*915 FILLER_33_81
*916 FILLER_33_93
*917 FILLER_34_109
*918 FILLER_34_121
*919 FILLER_34_133
*920 FILLER_34_139
*921 FILLER_34_141
*922 FILLER_34_153
*923 FILLER_34_165
*924 FILLER_34_177
*925 FILLER_34_189
*926 FILLER_34_195
*927 FILLER_34_197
*928 FILLER_34_209
*929 FILLER_34_221
*930 FILLER_34_233
*931 FILLER_34_24
*932 FILLER_34_245
*933 FILLER_34_251
*934 FILLER_34_253
*935 FILLER_34_265
*936 FILLER_34_277
*937 FILLER_34_289
*938 FILLER_34_29
*939 FILLER_34_297
*940 FILLER_34_3
*941 FILLER_34_53
*942 FILLER_34_65
*943 FILLER_34_77
*944 FILLER_34_83
*945 FILLER_34_85
*946 FILLER_34_97
*947 FILLER_35_109
*948 FILLER_35_113
*949 FILLER_35_12
*950 FILLER_35_125
*951 FILLER_35_137
*952 FILLER_35_149
*953 FILLER_35_161
*954 FILLER_35_167
*955 FILLER_35_169
*956 FILLER_35_181
*957 FILLER_35_193
*958 FILLER_35_205
*959 FILLER_35_217
*960 FILLER_35_223
*961 FILLER_35_225
*962 FILLER_35_237
*963 FILLER_35_249
*964 FILLER_35_261
*965 FILLER_35_273
*966 FILLER_35_279
*967 FILLER_35_281
*968 FILLER_35_293
*969 FILLER_35_36
*970 FILLER_35_45
*971 FILLER_35_52
*972 FILLER_35_61
*973 FILLER_35_73
*974 FILLER_35_85
*975 FILLER_35_97
*976 FILLER_36_109
*977 FILLER_36_121
*978 FILLER_36_133
*979 FILLER_36_139
*980 FILLER_36_141
*981 FILLER_36_153
*982 FILLER_36_165
*983 FILLER_36_177
*984 FILLER_36_189
*985 FILLER_36_195
*986 FILLER_36_197
*987 FILLER_36_209
*988 FILLER_36_221
*989 FILLER_36_233
*990 FILLER_36_24
*991 FILLER_36_245
*992 FILLER_36_251
*993 FILLER_36_253
*994 FILLER_36_265
*995 FILLER_36_277
*996 FILLER_36_289
*997 FILLER_36_29
*998 FILLER_36_297
*999 FILLER_36_3
*1000 FILLER_36_53
*1001 FILLER_36_65
*1002 FILLER_36_77
*1003 FILLER_36_83
*1004 FILLER_36_85
*1005 FILLER_36_97
*1006 FILLER_37_108
*1007 FILLER_37_113
*1008 FILLER_37_125
*1009 FILLER_37_137
*1010 FILLER_37_149
*1011 FILLER_37_161
*1012 FILLER_37_167
*1013 FILLER_37_169
*1014 FILLER_37_181
*1015 FILLER_37_193
*1016 FILLER_37_205
*1017 FILLER_37_217
*1018 FILLER_37_223
*1019 FILLER_37_225
*1020 FILLER_37_237
*1021 FILLER_37_249
*1022 FILLER_37_261
*1023 FILLER_37_273
*1024 FILLER_37_279
*1025 FILLER_37_28
*1026 FILLER_37_281
*1027 FILLER_37_293
*1028 FILLER_37_3
*1029 FILLER_37_52
*1030 FILLER_37_60
*1031 FILLER_37_7
*1032 FILLER_37_72
*1033 FILLER_37_84
*1034 FILLER_37_96
*1035 FILLER_38_109
*1036 FILLER_38_121
*1037 FILLER_38_133
*1038 FILLER_38_139
*1039 FILLER_38_141
*1040 FILLER_38_153
*1041 FILLER_38_165
*1042 FILLER_38_177
*1043 FILLER_38_189
*1044 FILLER_38_195
*1045 FILLER_38_197
*1046 FILLER_38_209
*1047 FILLER_38_221
*1048 FILLER_38_233
*1049 FILLER_38_24
*1050 FILLER_38_245
*1051 FILLER_38_251
*1052 FILLER_38_253
*1053 FILLER_38_265
*1054 FILLER_38_277
*1055 FILLER_38_289
*1056 FILLER_38_29
*1057 FILLER_38_297
*1058 FILLER_38_3
*1059 FILLER_38_53
*1060 FILLER_38_65
*1061 FILLER_38_77
*1062 FILLER_38_83
*1063 FILLER_38_85
*1064 FILLER_38_97
*1065 FILLER_39_105
*1066 FILLER_39_111
*1067 FILLER_39_113
*1068 FILLER_39_125
*1069 FILLER_39_137
*1070 FILLER_39_149
*1071 FILLER_39_161
*1072 FILLER_39_167
*1073 FILLER_39_169
*1074 FILLER_39_181
*1075 FILLER_39_193
*1076 FILLER_39_205
*1077 FILLER_39_217
*1078 FILLER_39_223
*1079 FILLER_39_225
*1080 FILLER_39_237
*1081 FILLER_39_249
*1082 FILLER_39_261
*1083 FILLER_39_27
*1084 FILLER_39_273
*1085 FILLER_39_279
*1086 FILLER_39_281
*1087 FILLER_39_293
*1088 FILLER_39_3
*1089 FILLER_39_38
*1090 FILLER_39_47
*1091 FILLER_39_55
*1092 FILLER_39_57
*1093 FILLER_39_69
*1094 FILLER_39_81
*1095 FILLER_39_93
*1096 FILLER_3_105
*1097 FILLER_3_111
*1098 FILLER_3_113
*1099 FILLER_3_125
*1100 FILLER_3_137
*1101 FILLER_3_149
*1102 FILLER_3_15
*1103 FILLER_3_161
*1104 FILLER_3_167
*1105 FILLER_3_169
*1106 FILLER_3_181
*1107 FILLER_3_193
*1108 FILLER_3_205
*1109 FILLER_3_217
*1110 FILLER_3_223
*1111 FILLER_3_225
*1112 FILLER_3_237
*1113 FILLER_3_249
*1114 FILLER_3_261
*1115 FILLER_3_27
*1116 FILLER_3_273
*1117 FILLER_3_279
*1118 FILLER_3_281
*1119 FILLER_3_293
*1120 FILLER_3_3
*1121 FILLER_3_39
*1122 FILLER_3_51
*1123 FILLER_3_55
*1124 FILLER_3_57
*1125 FILLER_3_69
*1126 FILLER_3_81
*1127 FILLER_3_93
*1128 FILLER_40_109
*1129 FILLER_40_121
*1130 FILLER_40_133
*1131 FILLER_40_139
*1132 FILLER_40_141
*1133 FILLER_40_153
*1134 FILLER_40_165
*1135 FILLER_40_177
*1136 FILLER_40_189
*1137 FILLER_40_195
*1138 FILLER_40_197
*1139 FILLER_40_209
*1140 FILLER_40_221
*1141 FILLER_40_233
*1142 FILLER_40_24
*1143 FILLER_40_245
*1144 FILLER_40_251
*1145 FILLER_40_253
*1146 FILLER_40_265
*1147 FILLER_40_277
*1148 FILLER_40_289
*1149 FILLER_40_297
*1150 FILLER_40_3
*1151 FILLER_40_36
*1152 FILLER_40_45
*1153 FILLER_40_54
*1154 FILLER_40_66
*1155 FILLER_40_78
*1156 FILLER_40_85
*1157 FILLER_40_97
*1158 FILLER_41_105
*1159 FILLER_41_111
*1160 FILLER_41_113
*1161 FILLER_41_125
*1162 FILLER_41_137
*1163 FILLER_41_149
*1164 FILLER_41_161
*1165 FILLER_41_167
*1166 FILLER_41_169
*1167 FILLER_41_181
*1168 FILLER_41_193
*1169 FILLER_41_205
*1170 FILLER_41_217
*1171 FILLER_41_223
*1172 FILLER_41_225
*1173 FILLER_41_237
*1174 FILLER_41_249
*1175 FILLER_41_261
*1176 FILLER_41_27
*1177 FILLER_41_273
*1178 FILLER_41_279
*1179 FILLER_41_281
*1180 FILLER_41_293
*1181 FILLER_41_3
*1182 FILLER_41_51
*1183 FILLER_41_55
*1184 FILLER_41_57
*1185 FILLER_41_69
*1186 FILLER_41_81
*1187 FILLER_41_93
*1188 FILLER_42_109
*1189 FILLER_42_121
*1190 FILLER_42_133
*1191 FILLER_42_139
*1192 FILLER_42_141
*1193 FILLER_42_153
*1194 FILLER_42_165
*1195 FILLER_42_177
*1196 FILLER_42_189
*1197 FILLER_42_195
*1198 FILLER_42_197
*1199 FILLER_42_209
*1200 FILLER_42_221
*1201 FILLER_42_233
*1202 FILLER_42_24
*1203 FILLER_42_245
*1204 FILLER_42_251
*1205 FILLER_42_253
*1206 FILLER_42_265
*1207 FILLER_42_277
*1208 FILLER_42_289
*1209 FILLER_42_297
*1210 FILLER_42_3
*1211 FILLER_42_34
*1212 FILLER_42_42
*1213 FILLER_42_54
*1214 FILLER_42_66
*1215 FILLER_42_78
*1216 FILLER_42_85
*1217 FILLER_42_97
*1218 FILLER_43_105
*1219 FILLER_43_111
*1220 FILLER_43_113
*1221 FILLER_43_125
*1222 FILLER_43_137
*1223 FILLER_43_149
*1224 FILLER_43_161
*1225 FILLER_43_167
*1226 FILLER_43_169
*1227 FILLER_43_181
*1228 FILLER_43_193
*1229 FILLER_43_205
*1230 FILLER_43_217
*1231 FILLER_43_223
*1232 FILLER_43_225
*1233 FILLER_43_237
*1234 FILLER_43_249
*1235 FILLER_43_261
*1236 FILLER_43_27
*1237 FILLER_43_273
*1238 FILLER_43_279
*1239 FILLER_43_281
*1240 FILLER_43_293
*1241 FILLER_43_3
*1242 FILLER_43_36
*1243 FILLER_43_48
*1244 FILLER_43_57
*1245 FILLER_43_69
*1246 FILLER_43_81
*1247 FILLER_43_93
*1248 FILLER_44_109
*1249 FILLER_44_121
*1250 FILLER_44_133
*1251 FILLER_44_139
*1252 FILLER_44_141
*1253 FILLER_44_153
*1254 FILLER_44_165
*1255 FILLER_44_177
*1256 FILLER_44_189
*1257 FILLER_44_195
*1258 FILLER_44_197
*1259 FILLER_44_209
*1260 FILLER_44_221
*1261 FILLER_44_233
*1262 FILLER_44_24
*1263 FILLER_44_245
*1264 FILLER_44_251
*1265 FILLER_44_253
*1266 FILLER_44_265
*1267 FILLER_44_277
*1268 FILLER_44_289
*1269 FILLER_44_297
*1270 FILLER_44_3
*1271 FILLER_44_33
*1272 FILLER_44_45
*1273 FILLER_44_57
*1274 FILLER_44_69
*1275 FILLER_44_81
*1276 FILLER_44_85
*1277 FILLER_44_97
*1278 FILLER_45_105
*1279 FILLER_45_111
*1280 FILLER_45_113
*1281 FILLER_45_125
*1282 FILLER_45_137
*1283 FILLER_45_149
*1284 FILLER_45_161
*1285 FILLER_45_167
*1286 FILLER_45_169
*1287 FILLER_45_181
*1288 FILLER_45_193
*1289 FILLER_45_205
*1290 FILLER_45_217
*1291 FILLER_45_223
*1292 FILLER_45_225
*1293 FILLER_45_237
*1294 FILLER_45_249
*1295 FILLER_45_261
*1296 FILLER_45_27
*1297 FILLER_45_273
*1298 FILLER_45_279
*1299 FILLER_45_281
*1300 FILLER_45_293
*1301 FILLER_45_3
*1302 FILLER_45_35
*1303 FILLER_45_47
*1304 FILLER_45_55
*1305 FILLER_45_57
*1306 FILLER_45_69
*1307 FILLER_45_81
*1308 FILLER_45_93
*1309 FILLER_46_109
*1310 FILLER_46_121
*1311 FILLER_46_133
*1312 FILLER_46_139
*1313 FILLER_46_141
*1314 FILLER_46_153
*1315 FILLER_46_165
*1316 FILLER_46_177
*1317 FILLER_46_189
*1318 FILLER_46_195
*1319 FILLER_46_197
*1320 FILLER_46_209
*1321 FILLER_46_221
*1322 FILLER_46_233
*1323 FILLER_46_24
*1324 FILLER_46_245
*1325 FILLER_46_251
*1326 FILLER_46_253
*1327 FILLER_46_265
*1328 FILLER_46_277
*1329 FILLER_46_289
*1330 FILLER_46_29
*1331 FILLER_46_297
*1332 FILLER_46_3
*1333 FILLER_46_53
*1334 FILLER_46_65
*1335 FILLER_46_77
*1336 FILLER_46_83
*1337 FILLER_46_85
*1338 FILLER_46_97
*1339 FILLER_47_105
*1340 FILLER_47_111
*1341 FILLER_47_113
*1342 FILLER_47_125
*1343 FILLER_47_137
*1344 FILLER_47_149
*1345 FILLER_47_161
*1346 FILLER_47_167
*1347 FILLER_47_169
*1348 FILLER_47_181
*1349 FILLER_47_193
*1350 FILLER_47_205
*1351 FILLER_47_217
*1352 FILLER_47_223
*1353 FILLER_47_225
*1354 FILLER_47_237
*1355 FILLER_47_249
*1356 FILLER_47_261
*1357 FILLER_47_27
*1358 FILLER_47_273
*1359 FILLER_47_279
*1360 FILLER_47_281
*1361 FILLER_47_293
*1362 FILLER_47_3
*1363 FILLER_47_35
*1364 FILLER_47_47
*1365 FILLER_47_55
*1366 FILLER_47_57
*1367 FILLER_47_69
*1368 FILLER_47_81
*1369 FILLER_47_93
*1370 FILLER_48_109
*1371 FILLER_48_121
*1372 FILLER_48_133
*1373 FILLER_48_139
*1374 FILLER_48_141
*1375 FILLER_48_153
*1376 FILLER_48_165
*1377 FILLER_48_177
*1378 FILLER_48_189
*1379 FILLER_48_195
*1380 FILLER_48_197
*1381 FILLER_48_209
*1382 FILLER_48_221
*1383 FILLER_48_233
*1384 FILLER_48_24
*1385 FILLER_48_245
*1386 FILLER_48_251
*1387 FILLER_48_253
*1388 FILLER_48_265
*1389 FILLER_48_277
*1390 FILLER_48_289
*1391 FILLER_48_29
*1392 FILLER_48_297
*1393 FILLER_48_3
*1394 FILLER_48_41
*1395 FILLER_48_53
*1396 FILLER_48_65
*1397 FILLER_48_77
*1398 FILLER_48_83
*1399 FILLER_48_85
*1400 FILLER_48_97
*1401 FILLER_49_105
*1402 FILLER_49_111
*1403 FILLER_49_113
*1404 FILLER_49_125
*1405 FILLER_49_137
*1406 FILLER_49_149
*1407 FILLER_49_161
*1408 FILLER_49_167
*1409 FILLER_49_169
*1410 FILLER_49_181
*1411 FILLER_49_193
*1412 FILLER_49_205
*1413 FILLER_49_217
*1414 FILLER_49_223
*1415 FILLER_49_225
*1416 FILLER_49_237
*1417 FILLER_49_249
*1418 FILLER_49_261
*1419 FILLER_49_27
*1420 FILLER_49_273
*1421 FILLER_49_279
*1422 FILLER_49_281
*1423 FILLER_49_293
*1424 FILLER_49_3
*1425 FILLER_49_39
*1426 FILLER_49_51
*1427 FILLER_49_55
*1428 FILLER_49_57
*1429 FILLER_49_69
*1430 FILLER_49_81
*1431 FILLER_49_93
*1432 FILLER_4_109
*1433 FILLER_4_121
*1434 FILLER_4_133
*1435 FILLER_4_139
*1436 FILLER_4_141
*1437 FILLER_4_15
*1438 FILLER_4_153
*1439 FILLER_4_165
*1440 FILLER_4_177
*1441 FILLER_4_189
*1442 FILLER_4_195
*1443 FILLER_4_197
*1444 FILLER_4_209
*1445 FILLER_4_221
*1446 FILLER_4_233
*1447 FILLER_4_245
*1448 FILLER_4_251
*1449 FILLER_4_253
*1450 FILLER_4_265
*1451 FILLER_4_27
*1452 FILLER_4_277
*1453 FILLER_4_289
*1454 FILLER_4_29
*1455 FILLER_4_297
*1456 FILLER_4_3
*1457 FILLER_4_41
*1458 FILLER_4_53
*1459 FILLER_4_65
*1460 FILLER_4_77
*1461 FILLER_4_83
*1462 FILLER_4_85
*1463 FILLER_4_97
*1464 FILLER_50_109
*1465 FILLER_50_121
*1466 FILLER_50_133
*1467 FILLER_50_139
*1468 FILLER_50_141
*1469 FILLER_50_15
*1470 FILLER_50_153
*1471 FILLER_50_165
*1472 FILLER_50_177
*1473 FILLER_50_189
*1474 FILLER_50_195
*1475 FILLER_50_197
*1476 FILLER_50_209
*1477 FILLER_50_221
*1478 FILLER_50_233
*1479 FILLER_50_245
*1480 FILLER_50_251
*1481 FILLER_50_253
*1482 FILLER_50_265
*1483 FILLER_50_27
*1484 FILLER_50_277
*1485 FILLER_50_289
*1486 FILLER_50_29
*1487 FILLER_50_297
*1488 FILLER_50_3
*1489 FILLER_50_41
*1490 FILLER_50_53
*1491 FILLER_50_65
*1492 FILLER_50_77
*1493 FILLER_50_83
*1494 FILLER_50_85
*1495 FILLER_50_97
*1496 FILLER_51_105
*1497 FILLER_51_111
*1498 FILLER_51_113
*1499 FILLER_51_125
*1500 FILLER_51_137
*1501 FILLER_51_149
*1502 FILLER_51_15
*1503 FILLER_51_161
*1504 FILLER_51_167
*1505 FILLER_51_169
*1506 FILLER_51_181
*1507 FILLER_51_193
*1508 FILLER_51_205
*1509 FILLER_51_217
*1510 FILLER_51_223
*1511 FILLER_51_225
*1512 FILLER_51_237
*1513 FILLER_51_249
*1514 FILLER_51_261
*1515 FILLER_51_27
*1516 FILLER_51_273
*1517 FILLER_51_279
*1518 FILLER_51_281
*1519 FILLER_51_293
*1520 FILLER_51_3
*1521 FILLER_51_39
*1522 FILLER_51_51
*1523 FILLER_51_55
*1524 FILLER_51_57
*1525 FILLER_51_69
*1526 FILLER_51_81
*1527 FILLER_51_93