*SPEF "ieee 1481-1999"
*DESIGN "cchan_fp8_multiplier"
*DATE "11:11:11 Fri 11 11, 1111"
*VENDOR "OpenRCX"
*PROGRAM "Parallel Extraction"
*VERSION "1.0"
*DESIGN_FLOW "NAME_SCOPE LOCAL" "PIN_CAP NONE"
*DIVIDER /
*DELIMITER :
*BUS_DELIMITER []
*T_UNIT 1 NS
*C_UNIT 1 PF
*R_UNIT 1 OHM
*L_UNIT 1 HENRY

*NAME_MAP
*1 io_in[0]
*2 io_in[1]
*3 io_in[2]
*4 io_in[3]
*5 io_in[4]
*6 io_in[5]
*7 io_in[6]
*8 io_in[7]
*9 io_out[0]
*10 io_out[1]
*11 io_out[2]
*12 io_out[3]
*13 io_out[4]
*14 io_out[5]
*15 io_out[6]
*16 io_out[7]
*19 _000_
*20 _001_
*21 _002_
*22 _003_
*23 _004_
*24 _005_
*25 _006_
*26 _007_
*27 _008_
*28 _009_
*29 _010_
*30 _011_
*31 _012_
*32 _013_
*33 _014_
*34 _015_
*35 _016_
*36 _017_
*37 _018_
*38 _019_
*39 _020_
*40 _021_
*41 _022_
*42 _023_
*43 _024_
*44 _025_
*45 _026_
*46 _027_
*47 _028_
*48 _029_
*49 _030_
*50 _031_
*51 _032_
*52 _033_
*53 _034_
*54 _035_
*55 _036_
*56 _037_
*57 _038_
*58 _039_
*59 _040_
*60 _041_
*61 _042_
*62 _043_
*63 _044_
*64 _045_
*65 _046_
*66 _047_
*67 _048_
*68 _049_
*69 _050_
*70 _051_
*71 _052_
*72 _053_
*73 _054_
*74 _055_
*75 _056_
*76 _057_
*77 _058_
*78 _059_
*79 _060_
*80 _061_
*81 _062_
*82 _063_
*83 _064_
*84 _065_
*85 _066_
*86 _067_
*87 _068_
*88 _069_
*89 _070_
*90 _071_
*91 _072_
*92 _073_
*93 _074_
*94 _075_
*95 _076_
*96 _077_
*97 _078_
*98 _079_
*99 _080_
*100 _081_
*101 _082_
*102 _083_
*103 _084_
*104 _085_
*105 _086_
*106 _087_
*107 _088_
*108 _089_
*109 _090_
*110 _091_
*111 _092_
*112 _093_
*113 _094_
*114 _095_
*115 _096_
*116 _097_
*117 _098_
*118 _099_
*119 _100_
*120 _101_
*121 _102_
*122 _103_
*123 _104_
*124 _105_
*125 _106_
*126 _107_
*127 _108_
*128 _109_
*129 _110_
*130 _111_
*131 _112_
*132 _113_
*133 _114_
*134 _115_
*135 _116_
*136 _117_
*137 _118_
*138 _119_
*139 _120_
*140 _121_
*141 _122_
*142 _123_
*143 _124_
*144 _125_
*145 _126_
*146 _127_
*147 _128_
*148 _129_
*149 _130_
*150 _131_
*151 _132_
*152 _133_
*153 _134_
*154 _135_
*155 _136_
*156 _137_
*157 _138_
*158 _139_
*159 _140_
*160 _141_
*161 _142_
*162 _143_
*163 _144_
*164 _145_
*165 _146_
*166 _147_
*167 _148_
*168 _149_
*169 _150_
*170 _151_
*171 _152_
*172 _153_
*173 _154_
*174 _155_
*175 _156_
*176 _157_
*177 _158_
*178 _159_
*179 _160_
*180 _161_
*181 _162_
*182 _163_
*183 _164_
*184 _165_
*185 clknet_0_io_in[0]
*186 clknet_1_0__leaf_io_in[0]
*187 clknet_1_1__leaf_io_in[0]
*188 mul1\.exp1\[0\]
*189 mul1\.exp1\[1\]
*190 mul1\.exp1\[2\]
*191 mul1\.exp1\[3\]
*192 mul1\.exp2\[0\]
*193 mul1\.exp2\[1\]
*194 mul1\.exp2\[2\]
*195 mul1\.exp2\[3\]
*196 mul1\.mant1\[0\]
*197 mul1\.mant1\[1\]
*198 mul1\.mant1\[2\]
*199 mul1\.mant2\[0\]
*200 mul1\.mant2\[1\]
*201 mul1\.mant2\[2\]
*202 mul1\.sign1
*203 mul1\.sign2
*204 mul1\.sign_out
*205 net1
*206 net2
*207 net3
*208 net4
*209 net5
*210 net6
*211 net7
*212 FILLER_0_109
*213 FILLER_0_113
*214 FILLER_0_125
*215 FILLER_0_137
*216 FILLER_0_141
*217 FILLER_0_153
*218 FILLER_0_165
*219 FILLER_0_169
*220 FILLER_0_181
*221 FILLER_0_193
*222 FILLER_0_197
*223 FILLER_0_209
*224 FILLER_0_221
*225 FILLER_0_225
*226 FILLER_0_237
*227 FILLER_0_24
*228 FILLER_0_249
*229 FILLER_0_253
*230 FILLER_0_265
*231 FILLER_0_277
*232 FILLER_0_281
*233 FILLER_0_293
*234 FILLER_0_3
*235 FILLER_0_45
*236 FILLER_0_53
*237 FILLER_0_57
*238 FILLER_0_69
*239 FILLER_0_81
*240 FILLER_0_85
*241 FILLER_0_97
*242 FILLER_10_111
*243 FILLER_10_123
*244 FILLER_10_127
*245 FILLER_10_133
*246 FILLER_10_139
*247 FILLER_10_141
*248 FILLER_10_153
*249 FILLER_10_165
*250 FILLER_10_177
*251 FILLER_10_189
*252 FILLER_10_195
*253 FILLER_10_197
*254 FILLER_10_209
*255 FILLER_10_221
*256 FILLER_10_233
*257 FILLER_10_24
*258 FILLER_10_245
*259 FILLER_10_251
*260 FILLER_10_253
*261 FILLER_10_265
*262 FILLER_10_277
*263 FILLER_10_289
*264 FILLER_10_29
*265 FILLER_10_297
*266 FILLER_10_3
*267 FILLER_10_41
*268 FILLER_10_54
*269 FILLER_10_67
*270 FILLER_10_7
*271 FILLER_10_75
*272 FILLER_10_79
*273 FILLER_10_83
*274 FILLER_10_85
*275 FILLER_10_97
*276 FILLER_11_108
*277 FILLER_11_123
*278 FILLER_11_153
*279 FILLER_11_165
*280 FILLER_11_169
*281 FILLER_11_181
*282 FILLER_11_193
*283 FILLER_11_205
*284 FILLER_11_217
*285 FILLER_11_223
*286 FILLER_11_225
*287 FILLER_11_237
*288 FILLER_11_249
*289 FILLER_11_25
*290 FILLER_11_261
*291 FILLER_11_273
*292 FILLER_11_279
*293 FILLER_11_281
*294 FILLER_11_293
*295 FILLER_11_3
*296 FILLER_11_37
*297 FILLER_11_48
*298 FILLER_11_57
*299 FILLER_11_67
*300 FILLER_11_79
*301 FILLER_11_87
*302 FILLER_11_95
*303 FILLER_12_100
*304 FILLER_12_108
*305 FILLER_12_133
*306 FILLER_12_139
*307 FILLER_12_141
*308 FILLER_12_153
*309 FILLER_12_165
*310 FILLER_12_177
*311 FILLER_12_189
*312 FILLER_12_195
*313 FILLER_12_197
*314 FILLER_12_209
*315 FILLER_12_221
*316 FILLER_12_233
*317 FILLER_12_24
*318 FILLER_12_245
*319 FILLER_12_251
*320 FILLER_12_253
*321 FILLER_12_265
*322 FILLER_12_277
*323 FILLER_12_289
*324 FILLER_12_29
*325 FILLER_12_297
*326 FILLER_12_3
*327 FILLER_12_37
*328 FILLER_12_42
*329 FILLER_12_55
*330 FILLER_12_59
*331 FILLER_12_64
*332 FILLER_12_68
*333 FILLER_12_7
*334 FILLER_12_77
*335 FILLER_12_83
*336 FILLER_12_85
*337 FILLER_12_89
*338 FILLER_13_105
*339 FILLER_13_111
*340 FILLER_13_113
*341 FILLER_13_125
*342 FILLER_13_137
*343 FILLER_13_149
*344 FILLER_13_161
*345 FILLER_13_167
*346 FILLER_13_169
*347 FILLER_13_18
*348 FILLER_13_181
*349 FILLER_13_193
*350 FILLER_13_205
*351 FILLER_13_217
*352 FILLER_13_223
*353 FILLER_13_225
*354 FILLER_13_237
*355 FILLER_13_24
*356 FILLER_13_249
*357 FILLER_13_261
*358 FILLER_13_273
*359 FILLER_13_279
*360 FILLER_13_28
*361 FILLER_13_281
*362 FILLER_13_293
*363 FILLER_13_35
*364 FILLER_13_46
*365 FILLER_13_54
*366 FILLER_13_6
*367 FILLER_13_60
*368 FILLER_13_64
*369 FILLER_13_70
*370 FILLER_13_76
*371 FILLER_13_82
*372 FILLER_13_90
*373 FILLER_13_98
*374 FILLER_14_105
*375 FILLER_14_117
*376 FILLER_14_126
*377 FILLER_14_138
*378 FILLER_14_141
*379 FILLER_14_153
*380 FILLER_14_165
*381 FILLER_14_177
*382 FILLER_14_189
*383 FILLER_14_195
*384 FILLER_14_197
*385 FILLER_14_209
*386 FILLER_14_21
*387 FILLER_14_221
*388 FILLER_14_233
*389 FILLER_14_245
*390 FILLER_14_251
*391 FILLER_14_253
*392 FILLER_14_265
*393 FILLER_14_27
*394 FILLER_14_277
*395 FILLER_14_289
*396 FILLER_14_29
*397 FILLER_14_297
*398 FILLER_14_33
*399 FILLER_14_43
*400 FILLER_14_49
*401 FILLER_14_55
*402 FILLER_14_6
*403 FILLER_14_67
*404 FILLER_14_80
*405 FILLER_14_85
*406 FILLER_14_89
*407 FILLER_14_95
*408 FILLER_15_10
*409 FILLER_15_102
*410 FILLER_15_110
*411 FILLER_15_119
*412 FILLER_15_131
*413 FILLER_15_14
*414 FILLER_15_143
*415 FILLER_15_155
*416 FILLER_15_167
*417 FILLER_15_169
*418 FILLER_15_18
*419 FILLER_15_181
*420 FILLER_15_193
*421 FILLER_15_205
*422 FILLER_15_217
*423 FILLER_15_223
*424 FILLER_15_225
*425 FILLER_15_237
*426 FILLER_15_249
*427 FILLER_15_261
*428 FILLER_15_273
*429 FILLER_15_279
*430 FILLER_15_28
*431 FILLER_15_281
*432 FILLER_15_293
*433 FILLER_15_34
*434 FILLER_15_38
*435 FILLER_15_51
*436 FILLER_15_55
*437 FILLER_15_6
*438 FILLER_15_62
*439 FILLER_15_70
*440 FILLER_15_78
*441 FILLER_15_90
*442 FILLER_15_94
*443 FILLER_16_110
*444 FILLER_16_124
*445 FILLER_16_136
*446 FILLER_16_148
*447 FILLER_16_15
*448 FILLER_16_160
*449 FILLER_16_172
*450 FILLER_16_184
*451 FILLER_16_19
*452 FILLER_16_197
*453 FILLER_16_209
*454 FILLER_16_221
*455 FILLER_16_23
*456 FILLER_16_233
*457 FILLER_16_245
*458 FILLER_16_251
*459 FILLER_16_253
*460 FILLER_16_265
*461 FILLER_16_27
*462 FILLER_16_277
*463 FILLER_16_289
*464 FILLER_16_297
*465 FILLER_16_3
*466 FILLER_16_38
*467 FILLER_16_44
*468 FILLER_16_53
*469 FILLER_16_60
*470 FILLER_16_64
*471 FILLER_16_74
*472 FILLER_16_82
*473 FILLER_16_98
*474 FILLER_17_106
*475 FILLER_17_113
*476 FILLER_17_13
*477 FILLER_17_133
*478 FILLER_17_145
*479 FILLER_17_157
*480 FILLER_17_165
*481 FILLER_17_169
*482 FILLER_17_181
*483 FILLER_17_193
*484 FILLER_17_205
*485 FILLER_17_217
*486 FILLER_17_223
*487 FILLER_17_225
*488 FILLER_17_237
*489 FILLER_17_249
*490 FILLER_17_261
*491 FILLER_17_273
*492 FILLER_17_279
*493 FILLER_17_28
*494 FILLER_17_281
*495 FILLER_17_293
*496 FILLER_17_3
*497 FILLER_17_34
*498 FILLER_17_41
*499 FILLER_17_51
*500 FILLER_17_55
*501 FILLER_17_60
*502 FILLER_17_69
*503 FILLER_17_77
*504 FILLER_17_86
*505 FILLER_17_90
*506 FILLER_17_94
*507 FILLER_18_115
*508 FILLER_18_127
*509 FILLER_18_139
*510 FILLER_18_141
*511 FILLER_18_153
*512 FILLER_18_165
*513 FILLER_18_177
*514 FILLER_18_18
*515 FILLER_18_189
*516 FILLER_18_195
*517 FILLER_18_197
*518 FILLER_18_209
*519 FILLER_18_221
*520 FILLER_18_233
*521 FILLER_18_245
*522 FILLER_18_251
*523 FILLER_18_253
*524 FILLER_18_26
*525 FILLER_18_265
*526 FILLER_18_277
*527 FILLER_18_289
*528 FILLER_18_297
*529 FILLER_18_3
*530 FILLER_18_36
*531 FILLER_18_44
*532 FILLER_18_57
*533 FILLER_18_69
*534 FILLER_18_7
*535 FILLER_18_81
*536 FILLER_18_85
*537 FILLER_18_98
*538 FILLER_19_102
*539 FILLER_19_110
*540 FILLER_19_113
*541 FILLER_19_125
*542 FILLER_19_136
*543 FILLER_19_148
*544 FILLER_19_16
*545 FILLER_19_160
*546 FILLER_19_169
*547 FILLER_19_181
*548 FILLER_19_193
*549 FILLER_19_20
*550 FILLER_19_205
*551 FILLER_19_217
*552 FILLER_19_223
*553 FILLER_19_225
*554 FILLER_19_237
*555 FILLER_19_249
*556 FILLER_19_261
*557 FILLER_19_273
*558 FILLER_19_279
*559 FILLER_19_281
*560 FILLER_19_293
*561 FILLER_19_3
*562 FILLER_19_30
*563 FILLER_19_39
*564 FILLER_19_52
*565 FILLER_19_57
*566 FILLER_19_61
*567 FILLER_19_66
*568 FILLER_19_82
*569 FILLER_19_9
*570 FILLER_19_94
*571 FILLER_1_103
*572 FILLER_1_111
*573 FILLER_1_117
*574 FILLER_1_131
*575 FILLER_1_139
*576 FILLER_1_151
*577 FILLER_1_163
*578 FILLER_1_167
*579 FILLER_1_169
*580 FILLER_1_181
*581 FILLER_1_19
*582 FILLER_1_193
*583 FILLER_1_205
*584 FILLER_1_217
*585 FILLER_1_223
*586 FILLER_1_225
*587 FILLER_1_237
*588 FILLER_1_249
*589 FILLER_1_261
*590 FILLER_1_273
*591 FILLER_1_279
*592 FILLER_1_281
*593 FILLER_1_293
*594 FILLER_1_39
*595 FILLER_1_51
*596 FILLER_1_55
*597 FILLER_1_62
*598 FILLER_1_74
*599 FILLER_1_80
*600 FILLER_1_91
*601 FILLER_20_104
*602 FILLER_20_110
*603 FILLER_20_119
*604 FILLER_20_13
*605 FILLER_20_131
*606 FILLER_20_139
*607 FILLER_20_141
*608 FILLER_20_145
*609 FILLER_20_159
*610 FILLER_20_171
*611 FILLER_20_183
*612 FILLER_20_195
*613 FILLER_20_197
*614 FILLER_20_20
*615 FILLER_20_209
*616 FILLER_20_221
*617 FILLER_20_233
*618 FILLER_20_245
*619 FILLER_20_251
*620 FILLER_20_253
*621 FILLER_20_265
*622 FILLER_20_277
*623 FILLER_20_289
*624 FILLER_20_297
*625 FILLER_20_3
*626 FILLER_20_35
*627 FILLER_20_46
*628 FILLER_20_58
*629 FILLER_20_7
*630 FILLER_20_78
*631 FILLER_20_98
*632 FILLER_21_108
*633 FILLER_21_11
*634 FILLER_21_113
*635 FILLER_21_133
*636 FILLER_21_145
*637 FILLER_21_164
*638 FILLER_21_169
*639 FILLER_21_181
*640 FILLER_21_193
*641 FILLER_21_205
*642 FILLER_21_217
*643 FILLER_21_223
*644 FILLER_21_225
*645 FILLER_21_237
*646 FILLER_21_24
*647 FILLER_21_249
*648 FILLER_21_261
*649 FILLER_21_273
*650 FILLER_21_279
*651 FILLER_21_281
*652 FILLER_21_293
*653 FILLER_21_3
*654 FILLER_21_32
*655 FILLER_21_36
*656 FILLER_21_47
*657 FILLER_21_55
*658 FILLER_21_57
*659 FILLER_21_65
*660 FILLER_21_76
*661 FILLER_21_85
*662 FILLER_21_97
*663 FILLER_22_111
*664 FILLER_22_12
*665 FILLER_22_123
*666 FILLER_22_127
*667 FILLER_22_134
*668 FILLER_22_158
*669 FILLER_22_170
*670 FILLER_22_182
*671 FILLER_22_194
*672 FILLER_22_197
*673 FILLER_22_209
*674 FILLER_22_221
*675 FILLER_22_23
*676 FILLER_22_233
*677 FILLER_22_245
*678 FILLER_22_251
*679 FILLER_22_253
*680 FILLER_22_265
*681 FILLER_22_27
*682 FILLER_22_277
*683 FILLER_22_289
*684 FILLER_22_29
*685 FILLER_22_297
*686 FILLER_22_3
*687 FILLER_22_43
*688 FILLER_22_55
*689 FILLER_22_63
*690 FILLER_22_70
*691 FILLER_22_82
*692 FILLER_22_85
*693 FILLER_22_93
*694 FILLER_22_99
*695 FILLER_23_105
*696 FILLER_23_111
*697 FILLER_23_113
*698 FILLER_23_125
*699 FILLER_23_136
*700 FILLER_23_148
*701 FILLER_23_160
*702 FILLER_23_169
*703 FILLER_23_177
*704 FILLER_23_183
*705 FILLER_23_195
*706 FILLER_23_207
*707 FILLER_23_21
*708 FILLER_23_219
*709 FILLER_23_223
*710 FILLER_23_225
*711 FILLER_23_237
*712 FILLER_23_249
*713 FILLER_23_261
*714 FILLER_23_273
*715 FILLER_23_279
*716 FILLER_23_281
*717 FILLER_23_293
*718 FILLER_23_32
*719 FILLER_23_44
*720 FILLER_23_57
*721 FILLER_23_6
*722 FILLER_23_69
*723 FILLER_23_79
*724 FILLER_23_91
*725 FILLER_24_108
*726 FILLER_24_120
*727 FILLER_24_132
*728 FILLER_24_141
*729 FILLER_24_153
*730 FILLER_24_165
*731 FILLER_24_177
*732 FILLER_24_189
*733 FILLER_24_195
*734 FILLER_24_197
*735 FILLER_24_209
*736 FILLER_24_221
*737 FILLER_24_233
*738 FILLER_24_24
*739 FILLER_24_245
*740 FILLER_24_251
*741 FILLER_24_253
*742 FILLER_24_265
*743 FILLER_24_277
*744 FILLER_24_289
*745 FILLER_24_29
*746 FILLER_24_297
*747 FILLER_24_3
*748 FILLER_24_44
*749 FILLER_24_57
*750 FILLER_24_65
*751 FILLER_24_79
*752 FILLER_24_83
*753 FILLER_24_85
*754 FILLER_24_9
*755 FILLER_24_96
*756 FILLER_25_10
*757 FILLER_25_105
*758 FILLER_25_111
*759 FILLER_25_113
*760 FILLER_25_125
*761 FILLER_25_137
*762 FILLER_25_149
*763 FILLER_25_161
*764 FILLER_25_167
*765 FILLER_25_169
*766 FILLER_25_181
*767 FILLER_25_193
*768 FILLER_25_205
*769 FILLER_25_217
*770 FILLER_25_22
*771 FILLER_25_223
*772 FILLER_25_225
*773 FILLER_25_237
*774 FILLER_25_249
*775 FILLER_25_261
*776 FILLER_25_273
*777 FILLER_25_279
*778 FILLER_25_281
*779 FILLER_25_293
*780 FILLER_25_34
*781 FILLER_25_46
*782 FILLER_25_54
*783 FILLER_25_57
*784 FILLER_25_69
*785 FILLER_25_81
*786 FILLER_25_93
*787 FILLER_26_109
*788 FILLER_26_11
*789 FILLER_26_121
*790 FILLER_26_133
*791 FILLER_26_139
*792 FILLER_26_141
*793 FILLER_26_153
*794 FILLER_26_165
*795 FILLER_26_177
*796 FILLER_26_189
*797 FILLER_26_195
*798 FILLER_26_197
*799 FILLER_26_209
*800 FILLER_26_21
*801 FILLER_26_221
*802 FILLER_26_233
*803 FILLER_26_245
*804 FILLER_26_251
*805 FILLER_26_253
*806 FILLER_26_265
*807 FILLER_26_27
*808 FILLER_26_277
*809 FILLER_26_289
*810 FILLER_26_29
*811 FILLER_26_297
*812 FILLER_26_3
*813 FILLER_26_35
*814 FILLER_26_42
*815 FILLER_26_54
*816 FILLER_26_66
*817 FILLER_26_78
*818 FILLER_26_85
*819 FILLER_26_97
*820 FILLER_27_104
*821 FILLER_27_113
*822 FILLER_27_125
*823 FILLER_27_137
*824 FILLER_27_149
*825 FILLER_27_161
*826 FILLER_27_167
*827 FILLER_27_169
*828 FILLER_27_181
*829 FILLER_27_193
*830 FILLER_27_205
*831 FILLER_27_21
*832 FILLER_27_217
*833 FILLER_27_223
*834 FILLER_27_225
*835 FILLER_27_237
*836 FILLER_27_249
*837 FILLER_27_261
*838 FILLER_27_273
*839 FILLER_27_279
*840 FILLER_27_281
*841 FILLER_27_293
*842 FILLER_27_33
*843 FILLER_27_41
*844 FILLER_27_52
*845 FILLER_27_57
*846 FILLER_27_6
*847 FILLER_27_68
*848 FILLER_27_80
*849 FILLER_27_92
*850 FILLER_28_108
*851 FILLER_28_120
*852 FILLER_28_132
*853 FILLER_28_141
*854 FILLER_28_15
*855 FILLER_28_153
*856 FILLER_28_165
*857 FILLER_28_177
*858 FILLER_28_189
*859 FILLER_28_195
*860 FILLER_28_197
*861 FILLER_28_209
*862 FILLER_28_221
*863 FILLER_28_233
*864 FILLER_28_245
*865 FILLER_28_251
*866 FILLER_28_253
*867 FILLER_28_265
*868 FILLER_28_27
*869 FILLER_28_277
*870 FILLER_28_289
*871 FILLER_28_297
*872 FILLER_28_3
*873 FILLER_28_37
*874 FILLER_28_49
*875 FILLER_28_61
*876 FILLER_28_73
*877 FILLER_28_81
*878 FILLER_28_85
*879 FILLER_28_97
*880 FILLER_29_105
*881 FILLER_29_111
*882 FILLER_29_113
*883 FILLER_29_125
*884 FILLER_29_135
*885 FILLER_29_147
*886 FILLER_29_15
*887 FILLER_29_159
*888 FILLER_29_167
*889 FILLER_29_169
*890 FILLER_29_181
*891 FILLER_29_193
*892 FILLER_29_205
*893 FILLER_29_217
*894 FILLER_29_223
*895 FILLER_29_225
*896 FILLER_29_237
*897 FILLER_29_249
*898 FILLER_29_261
*899 FILLER_29_27
*900 FILLER_29_273
*901 FILLER_29_279
*902 FILLER_29_281
*903 FILLER_29_293
*904 FILLER_29_3
*905 FILLER_29_39
*906 FILLER_29_51
*907 FILLER_29_55
*908 FILLER_29_57
*909 FILLER_29_69
*910 FILLER_29_81
*911 FILLER_29_93
*912 FILLER_2_109
*913 FILLER_2_121
*914 FILLER_2_133
*915 FILLER_2_139
*916 FILLER_2_141
*917 FILLER_2_153
*918 FILLER_2_165
*919 FILLER_2_177
*920 FILLER_2_189
*921 FILLER_2_19
*922 FILLER_2_195
*923 FILLER_2_197
*924 FILLER_2_209
*925 FILLER_2_221
*926 FILLER_2_233
*927 FILLER_2_245
*928 FILLER_2_251
*929 FILLER_2_253
*930 FILLER_2_265
*931 FILLER_2_27
*932 FILLER_2_277
*933 FILLER_2_289
*934 FILLER_2_297
*935 FILLER_2_45
*936 FILLER_2_55
*937 FILLER_2_67
*938 FILLER_2_79
*939 FILLER_2_83
*940 FILLER_2_85
*941 FILLER_2_97
*942 FILLER_30_109
*943 FILLER_30_121
*944 FILLER_30_133
*945 FILLER_30_139
*946 FILLER_30_141
*947 FILLER_30_15
*948 FILLER_30_153
*949 FILLER_30_165
*950 FILLER_30_177
*951 FILLER_30_189
*952 FILLER_30_195
*953 FILLER_30_197
*954 FILLER_30_209
*955 FILLER_30_221
*956 FILLER_30_233
*957 FILLER_30_245
*958 FILLER_30_251
*959 FILLER_30_253
*960 FILLER_30_265
*961 FILLER_30_27
*962 FILLER_30_277
*963 FILLER_30_289
*964 FILLER_30_29
*965 FILLER_30_297
*966 FILLER_30_3
*967 FILLER_30_41
*968 FILLER_30_53
*969 FILLER_30_65
*970 FILLER_30_77
*971 FILLER_30_83
*972 FILLER_30_85
*973 FILLER_30_97
*974 FILLER_31_101
*975 FILLER_31_109
*976 FILLER_31_113
*977 FILLER_31_12
*978 FILLER_31_125
*979 FILLER_31_137
*980 FILLER_31_149
*981 FILLER_31_161
*982 FILLER_31_167
*983 FILLER_31_169
*984 FILLER_31_181
*985 FILLER_31_193
*986 FILLER_31_205
*987 FILLER_31_217
*988 FILLER_31_223
*989 FILLER_31_225
*990 FILLER_31_237
*991 FILLER_31_24
*992 FILLER_31_249
*993 FILLER_31_261
*994 FILLER_31_273
*995 FILLER_31_279
*996 FILLER_31_281
*997 FILLER_31_293
*998 FILLER_31_3
*999 FILLER_31_36
*1000 FILLER_31_48
*1001 FILLER_31_57
*1002 FILLER_31_69
*1003 FILLER_31_77
*1004 FILLER_31_89
*1005 FILLER_32_109
*1006 FILLER_32_121
*1007 FILLER_32_133
*1008 FILLER_32_139
*1009 FILLER_32_141
*1010 FILLER_32_15
*1011 FILLER_32_153
*1012 FILLER_32_165
*1013 FILLER_32_177
*1014 FILLER_32_189
*1015 FILLER_32_195
*1016 FILLER_32_197
*1017 FILLER_32_209
*1018 FILLER_32_221
*1019 FILLER_32_233
*1020 FILLER_32_245
*1021 FILLER_32_251
*1022 FILLER_32_253
*1023 FILLER_32_265
*1024 FILLER_32_27
*1025 FILLER_32_277
*1026 FILLER_32_289
*1027 FILLER_32_29
*1028 FILLER_32_297
*1029 FILLER_32_3
*1030 FILLER_32_41
*1031 FILLER_32_53
*1032 FILLER_32_65
*1033 FILLER_32_77
*1034 FILLER_32_83
*1035 FILLER_32_85
*1036 FILLER_32_97
*1037 FILLER_33_105
*1038 FILLER_33_111
*1039 FILLER_33_113
*1040 FILLER_33_125
*1041 FILLER_33_137
*1042 FILLER_33_14
*1043 FILLER_33_149
*1044 FILLER_33_161
*1045 FILLER_33_167
*1046 FILLER_33_169
*1047 FILLER_33_181
*1048 FILLER_33_193
*1049 FILLER_33_205
*1050 FILLER_33_217
*1051 FILLER_33_223
*1052 FILLER_33_225
*1053 FILLER_33_237
*1054 FILLER_33_249
*1055 FILLER_33_26
*1056 FILLER_33_261
*1057 FILLER_33_273
*1058 FILLER_33_279
*1059 FILLER_33_281
*1060 FILLER_33_293
*1061 FILLER_33_3
*1062 FILLER_33_38
*1063 FILLER_33_50
*1064 FILLER_33_57
*1065 FILLER_33_69
*1066 FILLER_33_81
*1067 FILLER_33_93
*1068 FILLER_34_109
*1069 FILLER_34_121
*1070 FILLER_34_133
*1071 FILLER_34_139
*1072 FILLER_34_141
*1073 FILLER_34_15
*1074 FILLER_34_153
*1075 FILLER_34_165
*1076 FILLER_34_177
*1077 FILLER_34_189
*1078 FILLER_34_195
*1079 FILLER_34_197
*1080 FILLER_34_209
*1081 FILLER_34_221
*1082 FILLER_34_233
*1083 FILLER_34_245
*1084 FILLER_34_251
*1085 FILLER_34_253
*1086 FILLER_34_265
*1087 FILLER_34_27
*1088 FILLER_34_277
*1089 FILLER_34_289
*1090 FILLER_34_29
*1091 FILLER_34_297
*1092 FILLER_34_3
*1093 FILLER_34_41
*1094 FILLER_34_53
*1095 FILLER_34_65
*1096 FILLER_34_77
*1097 FILLER_34_83
*1098 FILLER_34_85
*1099 FILLER_34_97
*1100 FILLER_35_100
*1101 FILLER_35_113
*1102 FILLER_35_125
*1103 FILLER_35_137
*1104 FILLER_35_149
*1105 FILLER_35_15
*1106 FILLER_35_161
*1107 FILLER_35_167
*1108 FILLER_35_169
*1109 FILLER_35_181
*1110 FILLER_35_193
*1111 FILLER_35_205
*1112 FILLER_35_217
*1113 FILLER_35_223
*1114 FILLER_35_225
*1115 FILLER_35_237
*1116 FILLER_35_249
*1117 FILLER_35_261
*1118 FILLER_35_273
*1119 FILLER_35_279
*1120 FILLER_35_281
*1121 FILLER_35_293
*1122 FILLER_35_3
*1123 FILLER_35_30
*1124 FILLER_35_42
*1125 FILLER_35_54
*1126 FILLER_35_57
*1127 FILLER_35_69
*1128 FILLER_35_81
*1129 FILLER_35_88
*1130 FILLER_36_109
*1131 FILLER_36_121
*1132 FILLER_36_133
*1133 FILLER_36_139
*1134 FILLER_36_141
*1135 FILLER_36_15
*1136 FILLER_36_153
*1137 FILLER_36_165
*1138 FILLER_36_177
*1139 FILLER_36_189
*1140 FILLER_36_195
*1141 FILLER_36_197
*1142 FILLER_36_209
*1143 FILLER_36_221
*1144 FILLER_36_233
*1145 FILLER_36_245
*1146 FILLER_36_251
*1147 FILLER_36_253
*1148 FILLER_36_265
*1149 FILLER_36_27
*1150 FILLER_36_277
*1151 FILLER_36_289
*1152 FILLER_36_29
*1153 FILLER_36_297
*1154 FILLER_36_3
*1155 FILLER_36_41
*1156 FILLER_36_53
*1157 FILLER_36_65
*1158 FILLER_36_77
*1159 FILLER_36_83
*1160 FILLER_36_85
*1161 FILLER_36_97
*1162 FILLER_37_105
*1163 FILLER_37_111
*1164 FILLER_37_113
*1165 FILLER_37_125
*1166 FILLER_37_137
*1167 FILLER_37_149
*1168 FILLER_37_15
*1169 FILLER_37_161
*1170 FILLER_37_167
*1171 FILLER_37_169
*1172 FILLER_37_181
*1173 FILLER_37_193
*1174 FILLER_37_205
*1175 FILLER_37_217
*1176 FILLER_37_223
*1177 FILLER_37_225
*1178 FILLER_37_237
*1179 FILLER_37_249
*1180 FILLER_37_261
*1181 FILLER_37_27
*1182 FILLER_37_273
*1183 FILLER_37_279
*1184 FILLER_37_281
*1185 FILLER_37_293
*1186 FILLER_37_3
*1187 FILLER_37_39
*1188 FILLER_37_51
*1189 FILLER_37_55
*1190 FILLER_37_57
*1191 FILLER_37_69
*1192 FILLER_37_81
*1193 FILLER_37_93
*1194 FILLER_38_109
*1195 FILLER_38_121
*1196 FILLER_38_133
*1197 FILLER_38_139
*1198 FILLER_38_141
*1199 FILLER_38_15
*1200 FILLER_38_153
*1201 FILLER_38_165
*1202 FILLER_38_177
*1203 FILLER_38_189
*1204 FILLER_38_195
*1205 FILLER_38_197
*1206 FILLER_38_209
*1207 FILLER_38_221
*1208 FILLER_38_233
*1209 FILLER_38_245
*1210 FILLER_38_251
*1211 FILLER_38_253
*1212 FILLER_38_265
*1213 FILLER_38_27
*1214 FILLER_38_277
*1215 FILLER_38_289
*1216 FILLER_38_29
*1217 FILLER_38_297
*1218 FILLER_38_3
*1219 FILLER_38_41
*1220 FILLER_38_53
*1221 FILLER_38_65
*1222 FILLER_38_77
*1223 FILLER_38_83
*1224 FILLER_38_85
*1225 FILLER_38_97
*1226 FILLER_39_105
*1227 FILLER_39_111
*1228 FILLER_39_113
*1229 FILLER_39_125
*1230 FILLER_39_137
*1231 FILLER_39_149
*1232 FILLER_39_15
*1233 FILLER_39_161
*1234 FILLER_39_167
*1235 FILLER_39_169
*1236 FILLER_39_181
*1237 FILLER_39_193
*1238 FILLER_39_205
*1239 FILLER_39_217
*1240 FILLER_39_223
*1241 FILLER_39_225
*1242 FILLER_39_237
*1243 FILLER_39_249
*1244 FILLER_39_261
*1245 FILLER_39_27
*1246 FILLER_39_273
*1247 FILLER_39_279
*1248 FILLER_39_281
*1249 FILLER_39_293
*1250 FILLER_39_3
*1251 FILLER_39_39
*1252 FILLER_39_51
*1253 FILLER_39_55
*1254 FILLER_39_57
*1255 FILLER_39_69
*1256 FILLER_39_81
*1257 FILLER_39_93
*1258 FILLER_3_109
*1259 FILLER_3_113
*1260 FILLER_3_122
*1261 FILLER_3_129
*1262 FILLER_3_141
*1263 FILLER_3_149
*1264 FILLER_3_154
*1265 FILLER_3_166
*1266 FILLER_3_169
*1267 FILLER_3_181
*1268 FILLER_3_19
*1269 FILLER_3_193
*1270 FILLER_3_205
*1271 FILLER_3_217
*1272 FILLER_3_223
*1273 FILLER_3_225
*1274 FILLER_3_237
*1275 FILLER_3_249
*1276 FILLER_3_261
*1277 FILLER_3_273
*1278 FILLER_3_279
*1279 FILLER_3_281
*1280 FILLER_3_293
*1281 FILLER_3_39
*1282 FILLER_3_50
*1283 FILLER_3_57
*1284 FILLER_3_65
*1285 FILLER_3_73
*1286 FILLER_3_85
*1287 FILLER_3_97
*1288 FILLER_40_109
*1289 FILLER_40_121
*1290 FILLER_40_133
*1291 FILLER_40_139
*1292 FILLER_40_141
*1293 FILLER_40_15
*1294 FILLER_40_153
*1295 FILLER_40_165
*1296 FILLER_40_177
*1297 FILLER_40_189
*1298 FILLER_40_195
*1299 FILLER_40_197
*1300 FILLER_40_209
*1301 FILLER_40_221
*1302 FILLER_40_233
*1303 FILLER_40_245
*1304 FILLER_40_251
*1305 FILLER_40_253
*1306 FILLER_40_265
*1307 FILLER_40_27
*1308 FILLER_40_277
*1309 FILLER_40_289
*1310 FILLER_40_29
*1311 FILLER_40_297
*1312 FILLER_40_3
*1313 FILLER_40_41
*1314 FILLER_40_53
*1315 FILLER_40_65
*1316 FILLER_40_77
*1317 FILLER_40_83
*1318 FILLER_40_85
*1319 FILLER_40_97
*1320 FILLER_41_105
*1321 FILLER_41_111
*1322 FILLER_41_113
*1323 FILLER_41_125
*1324 FILLER_41_137
*1325 FILLER_41_149
*1326 FILLER_41_15
*1327 FILLER_41_161
*1328 FILLER_41_167
*1329 FILLER_41_169
*1330 FILLER_41_181
*1331 FILLER_41_193
*1332 FILLER_41_205
*1333 FILLER_41_217
*1334 FILLER_41_223
*1335 FILLER_41_225
*1336 FILLER_41_237
*1337 FILLER_41_249
*1338 FILLER_41_261
*1339 FILLER_41_27
*1340 FILLER_41_273
*1341 FILLER_41_279
*1342 FILLER_41_281
*1343 FILLER_41_293
*1344 FILLER_41_3
*1345 FILLER_41_39
*1346 FILLER_41_51
*1347 FILLER_41_55
*1348 FILLER_41_57
*1349 FILLER_41_69
*1350 FILLER_41_81
*1351 FILLER_41_93
*1352 FILLER_42_109
*1353 FILLER_42_121
*1354 FILLER_42_133
*1355 FILLER_42_139
*1356 FILLER_42_141
*1357 FILLER_42_15
*1358 FILLER_42_153
*1359 FILLER_42_165
*1360 FILLER_42_177
*1361 FILLER_42_189
*1362 FILLER_42_195
*1363 FILLER_42_197
*1364 FILLER_42_209
*1365 FILLER_42_221
*1366 FILLER_42_233
*1367 FILLER_42_245
*1368 FILLER_42_251
*1369 FILLER_42_253
*1370 FILLER_42_265
*1371 FILLER_42_27
*1372 FILLER_42_277
*1373 FILLER_42_289
*1374 FILLER_42_29
*1375 FILLER_42_297
*1376 FILLER_42_3
*1377 FILLER_42_41
*1378 FILLER_42_53
*1379 FILLER_42_65
*1380 FILLER_42_77
*1381 FILLER_42_83
*1382 FILLER_42_85
*1383 FILLER_42_97
*1384 FILLER_43_105
*1385 FILLER_43_111
*1386 FILLER_43_113
*1387 FILLER_43_125
*1388 FILLER_43_137
*1389 FILLER_43_149
*1390 FILLER_43_15
*1391 FILLER_43_161
*1392 FILLER_43_167
*1393 FILLER_43_169
*1394 FILLER_43_181
*1395 FILLER_43_193
*1396 FILLER_43_205
*1397 FILLER_43_217
*1398 FILLER_43_223
*1399 FILLER_43_225
*1400 FILLER_43_237
*1401 FILLER_43_249
*1402 FILLER_43_261
*1403 FILLER_43_27
*1404 FILLER_43_273
*1405 FILLER_43_279
*1406 FILLER_43_281
*1407 FILLER_43_293
*1408 FILLER_43_3
*1409 FILLER_43_39
*1410 FILLER_43_51
*1411 FILLER_43_55
*1412 FILLER_43_57
*1413 FILLER_43_69
*1414 FILLER_43_81
*1415 FILLER_43_93
*1416 FILLER_44_109
*1417 FILLER_44_121
*1418 FILLER_44_133
*1419 FILLER_44_139
*1420 FILLER_44_141
*1421 FILLER_44_15
*1422 FILLER_44_153
*1423 FILLER_44_165
*1424 FILLER_44_177
*1425 FILLER_44_189
*1426 FILLER_44_195
*1427 FILLER_44_197
*1428 FILLER_44_209
*1429 FILLER_44_221
*1430 FILLER_44_233
*1431 FILLER_44_245
*1432 FILLER_44_251
*1433 FILLER_44_253
*1434 FILLER_44_265
*1435 FILLER_44_27
*1436 FILLER_44_277
*1437 FILLER_44_289
*1438 FILLER_44_29
*1439 FILLER_44_297
*1440 FILLER_44_3
*1441 FILLER_44_41
*1442 FILLER_44_53
*1443 FILLER_44_65
*1444 FILLER_44_77
*1445 FILLER_44_83
*1446 FILLER_44_85
*1447 FILLER_44_97
*1448 FILLER_45_105
*1449 FILLER_45_111
*1450 FILLER_45_113
*1451 FILLER_45_125
*1452 FILLER_45_137
*1453 FILLER_45_149
*1454 FILLER_45_15
*1455 FILLER_45_161
*1456 FILLER_45_167
*1457 FILLER_45_169
*1458 FILLER_45_181
*1459 FILLER_45_193
*1460 FILLER_45_205
*1461 FILLER_45_217
*1462 FILLER_45_223
*1463 FILLER_45_225
*1464 FILLER_45_237
*1465 FILLER_45_249
*1466 FILLER_45_261
*1467 FILLER_45_27
*1468 FILLER_45_273
*1469 FILLER_45_279
*1470 FILLER_45_281
*1471 FILLER_45_293
*1472 FILLER_45_3
*1473 FILLER_45_39
*1474 FILLER_45_51
*1475 FILLER_45_55
*1476 FILLER_45_57
*1477 FILLER_45_69
*1478 FILLER_45_81
*1479 FILLER_45_93
*1480 FILLER_46_109
*1481 FILLER_46_121
*1482 FILLER_46_133
*1483 FILLER_46_139
*1484 FILLER_46_141
*1485 FILLER_46_15
*1486 FILLER_46_153
*1487 FILLER_46_165
*1488 FILLER_46_177
*1489 FILLER_46_189
*1490 FILLER_46_195
*1491 FILLER_46_197
*1492 FILLER_46_209
*1493 FILLER_46_221
*1494 FILLER_46_233
*1495 FILLER_46_245
*1496 FILLER_46_251
*1497 FILLER_46_253
*1498 FILLER_46_265
*1499 FILLER_46_27
*1500 FILLER_46_277
*1501 FILLER_46_289
*1502 FILLER_46_29
*1503 FILLER_46_297
*1504 FILLER_46_3
*1505 FILLER_46_41
*1506 FILLER_46_53
*1507 FILLER_46_65
*1508 FILLER_46_77
*1509 FILLER_46_83
*1510 FILLER_46_85
*1511 FILLER_46_97
*1512 FILLER_47_105
*1513 FILLER_47_111
*1514 FILLER_47_113
*1515 FILLER_47_125
*1516 FILLER_47_137
*1517 FILLER_47_149
*1518 FILLER_47_15
*1519 FILLER_47_161
*1520 FILLER_47_167
*1521 FILLER_47_169
*1522 FILLER_47_181
*1523 FILLER_47_193
*1524 FILLER_47_205
*1525 FILLER_47_217
*1526 FILLER_47_223
*1527 FILLER_47_225
*1528 FILLER_47_237
*1529 FILLER_47_249
*1530 FILLER_47_261
*1531 FILLER_47_27
*1532 FILLER_47_273
*1533 FILLER_47_279
*1534 FILLER_47_281
*1535 FILLER_47_293
*1536 FILLER_47_3
*1537 FILLER_47_39
*1538 FILLER_47_51
*1539 FILLER_47_55
*1540 FILLER_47_57
*1541 FILLER_47_69
*1542 FILLER_47_81
*1543 FILLER_47_93
*1544 FILLER_48_109
*1545 FILLER_48_121
*1546 FILLER_48_133
*1547 FILLER_48_139
*1548 FILLER_48_141
*1549 FILLER_48_15
*1550 FILLER_48_153
*1551 FILLER_48_165
*1552 FILLER_48_177
*1553 FILLER_48_189
*1554 FILLER_48_195
*1555 FILLER_48_197
*1556 FILLER_48_209
*1557 FILLER_48_221
*1558 FILLER_48_233
*1559 FILLER_48_245
*1560 FILLER_48_251
*1561 FILLER_48_253
*1562 FILLER_48_265
*1563 FILLER_48_27
*1564 FILLER_48_277
*1565 FILLER_48_289
*1566 FILLER_48_29
*1567 FILLER_48_297
*1568 FILLER_48_3
*1569 FILLER_48_41
*1570 FILLER_48_53
*1571 FILLER_48_65
*1572 FILLER_48_77
*1573 FILLER_48_83
*1574 FILLER_48_85
*1575 FILLER_48_97
*1576 FILLER_49_105
*1577 FILLER_49_111
*1578 FILLER_49_113
*1579 FILLER_49_125
*1580 FILLER_49_137
*1581 FILLER_49_149
*1582 FILLER_49_15
*1583 FILLER_49_161
*1584 FILLER_49_167
*1585 FILLER_49_169
*1586 FILLER_49_181
*1587 FILLER_49_193
*1588 FILLER_49_205
*1589 FILLER_49_217
*1590 FILLER_49_223
*1591 FILLER_49_225
*1592 FILLER_49_237
*1593 FILLER_49_249
*1594 FILLER_49_261
*1595 FILLER_49_27
*1596 FILLER_49_273
*1597 FILLER_49_279
*1598 FILLER_49_281
*1599 FILLER_49_293
*1600 FILLER_49_3
*1601 FILLER_49_39
*1602 FILLER_49_51
*1603 FILLER_49_55
*1604 FILLER_49_57
*1605 FILLER_49_69
*1606 FILLER_49_81
*1607 FILLER_49_93
*1608 FILLER_4_109
*1609 FILLER_4_121
*1610 FILLER_4_133
*1611 FILLER_4_139
*1612 FILLER_4_141
*1613 FILLER_4_153
*1614 FILLER_4_165
*1615 FILLER_4_177
*1616 FILLER_4_189
*1617 FILLER_4_195
*1618 FILLER_4_197
*1619 FILLER_4_209
*1620 FILLER_4_21
*1621 FILLER_4_221
*1622 FILLER_4_233
*1623 FILLER_4_245
*1624 FILLER_4_251
*1625 FILLER_4_253
*1626 FILLER_4_265
*1627 FILLER_4_27
*1628 FILLER_4_277
*1629 FILLER_4_289
*1630 FILLER_4_297
*1631 FILLER_4_3
*1632 FILLER_4_45
*1633 FILLER_4_49
*1634 FILLER_4_72
*1635 FILLER_4_85
*1636 FILLER_4_97
*1637 FILLER_50_109
*1638 FILLER_50_121
*1639 FILLER_50_133
*1640 FILLER_50_139
*1641 FILLER_50_141
*1642 FILLER_50_15
*1643 FILLER_50_153
*1644 FILLER_50_165
*1645 FILLER_50_177