*SPEF "ieee 1481-1999"
*DESIGN "chase_the_beat"
*DATE "11:11:11 Fri 11 11, 1111"
*VENDOR "OpenRCX"
*PROGRAM "Parallel Extraction"
*VERSION "1.0"
*DESIGN_FLOW "NAME_SCOPE LOCAL" "PIN_CAP NONE"
*DIVIDER /
*DELIMITER :
*BUS_DELIMITER []
*T_UNIT 1 NS
*C_UNIT 1 PF
*R_UNIT 1 OHM
*L_UNIT 1 HENRY

*NAME_MAP
*1 io_in[0]
*2 io_in[1]
*3 io_in[2]
*4 io_in[3]
*5 io_in[4]
*6 io_in[5]
*7 io_in[6]
*8 io_in[7]
*9 io_out[0]
*10 io_out[1]
*11 io_out[2]
*12 io_out[3]
*13 io_out[4]
*14 io_out[5]
*15 io_out[6]
*16 io_out[7]
*19 _0000_
*20 _0001_
*21 _0002_
*22 _0003_
*23 _0004_
*24 _0005_
*25 _0006_
*26 _0007_
*27 _0008_
*28 _0009_
*29 _0010_
*30 _0011_
*31 _0012_
*32 _0013_
*33 _0014_
*34 _0015_
*35 _0016_
*36 _0017_
*37 _0018_
*38 _0019_
*39 _0020_
*40 _0021_
*41 _0022_
*42 _0023_
*43 _0024_
*44 _0025_
*45 _0026_
*46 _0027_
*47 _0028_
*48 _0029_
*49 _0030_
*50 _0031_
*51 _0032_
*52 _0033_
*53 _0034_
*54 _0035_
*55 _0036_
*56 _0037_
*57 _0038_
*58 _0039_
*59 _0040_
*60 _0041_
*61 _0042_
*62 _0043_
*63 _0044_
*64 _0045_
*65 _0046_
*66 _0047_
*67 _0048_
*68 _0049_
*69 _0050_
*70 _0051_
*71 _0052_
*72 _0053_
*73 _0054_
*74 _0055_
*75 _0056_
*76 _0057_
*77 _0058_
*78 _0059_
*79 _0060_
*80 _0061_
*81 _0062_
*82 _0063_
*83 _0064_
*84 _0065_
*85 _0066_
*86 _0067_
*87 _0068_
*88 _0069_
*89 _0070_
*90 _0071_
*91 _0072_
*92 _0073_
*93 _0074_
*94 _0075_
*95 _0076_
*96 _0077_
*97 _0078_
*98 _0079_
*99 _0080_
*100 _0081_
*101 _0082_
*102 _0083_
*103 _0084_
*104 _0085_
*105 _0086_
*106 _0087_
*107 _0088_
*108 _0089_
*109 _0090_
*110 _0091_
*111 _0092_
*112 _0093_
*113 _0094_
*114 _0095_
*115 _0096_
*116 _0097_
*117 _0098_
*118 _0099_
*119 _0100_
*120 _0101_
*121 _0102_
*122 _0103_
*123 _0104_
*124 _0105_
*125 _0106_
*126 _0107_
*127 _0108_
*128 _0109_
*129 _0110_
*130 _0111_
*131 _0112_
*132 _0113_
*133 _0114_
*134 _0115_
*135 _0116_
*136 _0117_
*137 _0118_
*138 _0119_
*139 _0120_
*140 _0121_
*141 _0122_
*142 _0123_
*143 _0124_
*144 _0125_
*145 _0126_
*146 _0127_
*147 _0128_
*148 _0129_
*149 _0130_
*150 _0131_
*151 _0132_
*152 _0133_
*153 _0134_
*154 _0135_
*155 _0136_
*156 _0137_
*157 _0138_
*158 _0139_
*159 _0140_
*160 _0141_
*161 _0142_
*162 _0143_
*163 _0144_
*164 _0145_
*165 _0146_
*166 _0147_
*167 _0148_
*168 _0149_
*169 _0150_
*170 _0151_
*171 _0152_
*172 _0153_
*173 _0154_
*174 _0155_
*175 _0156_
*176 _0157_
*177 _0158_
*178 _0159_
*179 _0160_
*180 _0161_
*181 _0162_
*182 _0163_
*183 _0164_
*184 _0165_
*185 _0166_
*186 _0167_
*187 _0168_
*188 _0169_
*189 _0170_
*190 _0171_
*191 _0172_
*192 _0173_
*193 _0174_
*194 _0175_
*195 _0176_
*196 _0177_
*197 _0178_
*198 _0179_
*199 _0180_
*200 _0181_
*201 _0182_
*202 _0183_
*203 _0184_
*204 _0185_
*205 _0186_
*206 _0187_
*207 _0188_
*208 _0189_
*209 _0190_
*210 _0191_
*211 _0192_
*212 _0193_
*213 _0194_
*214 _0195_
*215 _0196_
*216 _0197_
*217 _0198_
*218 _0199_
*219 _0200_
*220 _0201_
*221 _0202_
*222 _0203_
*223 _0204_
*224 _0205_
*225 _0206_
*226 _0207_
*227 _0208_
*228 _0209_
*229 _0210_
*230 _0211_
*231 _0212_
*232 _0213_
*233 _0214_
*234 _0215_
*235 _0216_
*236 _0217_
*237 _0218_
*238 _0219_
*239 _0220_
*240 _0221_
*241 _0222_
*242 _0223_
*243 _0224_
*244 _0225_
*245 _0226_
*246 _0227_
*247 _0228_
*248 _0229_
*249 _0230_
*250 _0231_
*251 _0232_
*252 _0233_
*253 _0234_
*254 _0235_
*255 _0236_
*256 _0237_
*257 _0238_
*258 _0239_
*259 _0240_
*260 _0241_
*261 _0242_
*262 _0243_
*263 _0244_
*264 _0245_
*265 _0246_
*266 _0247_
*267 _0248_
*268 _0249_
*269 _0250_
*270 _0251_
*271 _0252_
*272 _0253_
*273 _0254_
*274 _0255_
*275 _0256_
*276 _0257_
*277 _0258_
*278 _0259_
*279 _0260_
*280 _0261_
*281 _0262_
*282 _0263_
*283 _0264_
*284 _0265_
*285 _0266_
*286 _0267_
*287 _0268_
*288 _0269_
*289 _0270_
*290 _0271_
*291 _0272_
*292 _0273_
*293 _0274_
*294 _0275_
*295 _0276_
*296 _0277_
*297 _0278_
*298 _0279_
*299 _0280_
*300 _0281_
*301 _0282_
*302 _0283_
*303 _0284_
*304 _0285_
*305 _0286_
*306 _0287_
*307 _0288_
*308 _0289_
*309 _0290_
*310 _0291_
*311 _0292_
*312 _0293_
*313 _0294_
*314 _0295_
*315 _0296_
*316 _0297_
*317 _0298_
*318 _0299_
*319 _0300_
*320 _0301_
*321 _0302_
*322 _0303_
*323 _0304_
*324 _0305_
*325 _0306_
*326 _0307_
*327 _0308_
*328 _0309_
*329 _0310_
*330 _0311_
*331 _0312_
*332 _0313_
*333 _0314_
*334 _0315_
*335 _0316_
*336 _0317_
*337 _0318_
*338 _0319_
*339 _0320_
*340 _0321_
*341 _0322_
*342 _0323_
*343 _0324_
*344 _0325_
*345 _0326_
*346 _0327_
*347 _0328_
*348 _0329_
*349 _0330_
*350 _0331_
*351 _0332_
*352 _0333_
*353 _0334_
*354 _0335_
*355 _0336_
*356 _0337_
*357 _0338_
*358 _0339_
*359 _0340_
*360 _0341_
*361 _0342_
*362 _0343_
*363 _0344_
*364 _0345_
*365 _0346_
*366 _0347_
*367 _0348_
*368 _0349_
*369 _0350_
*370 _0351_
*371 _0352_
*372 _0353_
*373 _0354_
*374 _0355_
*375 _0356_
*376 _0357_
*377 _0358_
*378 _0359_
*379 _0360_
*380 _0361_
*381 _0362_
*382 _0363_
*383 _0364_
*384 _0365_
*385 _0366_
*386 _0367_
*387 _0368_
*388 _0369_
*389 _0370_
*390 _0371_
*391 _0372_
*392 _0373_
*393 _0374_
*394 _0375_
*395 _0376_
*396 _0377_
*397 _0378_
*398 _0379_
*399 _0380_
*400 _0381_
*401 _0382_
*402 _0383_
*403 _0384_
*404 _0385_
*405 _0386_
*406 _0387_
*407 _0388_
*408 _0389_
*409 _0390_
*410 _0391_
*411 _0392_
*412 _0393_
*413 _0394_
*414 _0395_
*415 _0396_
*416 _0397_
*417 _0398_
*418 _0399_
*419 _0400_
*420 _0401_
*421 _0402_
*422 _0403_
*423 _0404_
*424 _0405_
*425 _0406_
*426 _0407_
*427 _0408_
*428 _0409_
*429 _0410_
*430 _0411_
*431 _0412_
*432 _0413_
*433 _0414_
*434 _0415_
*435 _0416_
*436 _0417_
*437 _0418_
*438 _0419_
*439 _0420_
*440 _0421_
*441 _0422_
*442 _0423_
*443 _0424_
*444 _0425_
*445 _0426_
*446 clknet_0_io_in[0]
*447 clknet_4_0_0_io_in[0]
*448 clknet_4_10_0_io_in[0]
*449 clknet_4_11_0_io_in[0]
*450 clknet_4_12_0_io_in[0]
*451 clknet_4_13_0_io_in[0]
*452 clknet_4_14_0_io_in[0]
*453 clknet_4_15_0_io_in[0]
*454 clknet_4_1_0_io_in[0]
*455 clknet_4_2_0_io_in[0]
*456 clknet_4_3_0_io_in[0]
*457 clknet_4_4_0_io_in[0]
*458 clknet_4_5_0_io_in[0]
*459 clknet_4_6_0_io_in[0]
*460 clknet_4_7_0_io_in[0]
*461 clknet_4_8_0_io_in[0]
*462 clknet_4_9_0_io_in[0]
*463 net1
*464 net2
*465 net3
*466 top\.chase\.ceiling\[0\]
*467 top\.chase\.ceiling\[1\]
*468 top\.chase\.ceiling\[2\]
*469 top\.chase\.ceiling\[3\]
*470 top\.chase\.ceiling\[4\]
*471 top\.chase\.ceiling\[5\]
*472 top\.chase\.ceiling\[6\]
*473 top\.chase\.ceiling\[7\]
*474 top\.chase\.ceiling\[8\]
*475 top\.chase\.ceiling\[9\]
*476 top\.chase\.counter\[0\]
*477 top\.chase\.counter\[1\]
*478 top\.chase\.counter\[2\]
*479 top\.chase\.counter\[3\]
*480 top\.chase\.counter\[4\]
*481 top\.chase\.counter\[5\]
*482 top\.chase\.counter\[6\]
*483 top\.chase\.counter\[7\]
*484 top\.chase\.counter\[8\]
*485 top\.chase\.counter\[9\]
*486 top\.chase\.mode\[0\]
*487 top\.chase\.mode\[1\]
*488 top\.chase\.o\[0\]
*489 top\.chase\.o\[1\]
*490 top\.chase\.o\[2\]
*491 top\.chase\.o\[3\]
*492 top\.chase\.o\[4\]
*493 top\.chase\.o\[5\]
*494 top\.chase\.o\[6\]
*495 top\.chase\.o\[7\]
*496 top\.chase\.prev_tap
*497 top\.noise\.shift_reg\$3\[0\]
*498 top\.noise\.shift_reg\$3\[10\]
*499 top\.noise\.shift_reg\$3\[11\]
*500 top\.noise\.shift_reg\$3\[12\]
*501 top\.noise\.shift_reg\$3\[13\]
*502 top\.noise\.shift_reg\$3\[14\]
*503 top\.noise\.shift_reg\$3\[1\]
*504 top\.noise\.shift_reg\$3\[2\]
*505 top\.noise\.shift_reg\$3\[3\]
*506 top\.noise\.shift_reg\$3\[4\]
*507 top\.noise\.shift_reg\$3\[5\]
*508 top\.noise\.shift_reg\$3\[6\]
*509 top\.noise\.shift_reg\$3\[7\]
*510 top\.noise\.shift_reg\$3\[8\]
*511 top\.noise\.shift_reg\$3\[9\]
*512 top\.noise\.shift_reg\$4\[0\]
*513 top\.noise\.shift_reg\$4\[10\]
*514 top\.noise\.shift_reg\$4\[11\]
*515 top\.noise\.shift_reg\$4\[12\]
*516 top\.noise\.shift_reg\$4\[13\]
*517 top\.noise\.shift_reg\$4\[14\]
*518 top\.noise\.shift_reg\$4\[1\]
*519 top\.noise\.shift_reg\$4\[2\]
*520 top\.noise\.shift_reg\$4\[3\]
*521 top\.noise\.shift_reg\$4\[4\]
*522 top\.noise\.shift_reg\$4\[5\]
*523 top\.noise\.shift_reg\$4\[6\]
*524 top\.noise\.shift_reg\$4\[7\]
*525 top\.noise\.shift_reg\$4\[8\]
*526 top\.noise\.shift_reg\$4\[9\]
*527 top\.noise\.shift_reg\$5\[0\]
*528 top\.noise\.shift_reg\$5\[10\]
*529 top\.noise\.shift_reg\$5\[11\]
*530 top\.noise\.shift_reg\$5\[12\]
*531 top\.noise\.shift_reg\$5\[13\]
*532 top\.noise\.shift_reg\$5\[14\]
*533 top\.noise\.shift_reg\$5\[1\]
*534 top\.noise\.shift_reg\$5\[2\]
*535 top\.noise\.shift_reg\$5\[3\]
*536 top\.noise\.shift_reg\$5\[4\]
*537 top\.noise\.shift_reg\$5\[5\]
*538 top\.noise\.shift_reg\$5\[6\]
*539 top\.noise\.shift_reg\$5\[7\]
*540 top\.noise\.shift_reg\$5\[8\]
*541 top\.noise\.shift_reg\$5\[9\]
*542 top\.noise\.shift_reg\$6\[0\]
*543 top\.noise\.shift_reg\$6\[10\]
*544 top\.noise\.shift_reg\$6\[11\]
*545 top\.noise\.shift_reg\$6\[12\]
*546 top\.noise\.shift_reg\$6\[13\]
*547 top\.noise\.shift_reg\$6\[14\]
*548 top\.noise\.shift_reg\$6\[1\]
*549 top\.noise\.shift_reg\$6\[2\]
*550 top\.noise\.shift_reg\$6\[3\]
*551 top\.noise\.shift_reg\$6\[4\]
*552 top\.noise\.shift_reg\$6\[5\]
*553 top\.noise\.shift_reg\$6\[6\]
*554 top\.noise\.shift_reg\$6\[7\]
*555 top\.noise\.shift_reg\$6\[8\]
*556 top\.noise\.shift_reg\$6\[9\]
*557 top\.noise\.shift_reg\$7\[0\]
*558 top\.noise\.shift_reg\$7\[10\]
*559 top\.noise\.shift_reg\$7\[11\]
*560 top\.noise\.shift_reg\$7\[12\]
*561 top\.noise\.shift_reg\$7\[13\]
*562 top\.noise\.shift_reg\$7\[14\]
*563 top\.noise\.shift_reg\$7\[1\]
*564 top\.noise\.shift_reg\$7\[2\]
*565 top\.noise\.shift_reg\$7\[3\]
*566 top\.noise\.shift_reg\$7\[4\]
*567 top\.noise\.shift_reg\$7\[5\]
*568 top\.noise\.shift_reg\$7\[6\]
*569 top\.noise\.shift_reg\$7\[7\]
*570 top\.noise\.shift_reg\$7\[8\]
*571 top\.noise\.shift_reg\$7\[9\]
*572 top\.noise\.shift_reg\$8\[0\]
*573 top\.noise\.shift_reg\$8\[10\]
*574 top\.noise\.shift_reg\$8\[11\]
*575 top\.noise\.shift_reg\$8\[12\]
*576 top\.noise\.shift_reg\$8\[13\]
*577 top\.noise\.shift_reg\$8\[14\]
*578 top\.noise\.shift_reg\$8\[1\]
*579 top\.noise\.shift_reg\$8\[2\]
*580 top\.noise\.shift_reg\$8\[3\]
*581 top\.noise\.shift_reg\$8\[4\]
*582 top\.noise\.shift_reg\$8\[5\]
*583 top\.noise\.shift_reg\$8\[6\]
*584 top\.noise\.shift_reg\$8\[7\]
*585 top\.noise\.shift_reg\$8\[8\]
*586 top\.noise\.shift_reg\$8\[9\]
*587 top\.noise\.shift_reg\$9\[0\]
*588 top\.noise\.shift_reg\$9\[10\]
*589 top\.noise\.shift_reg\$9\[11\]
*590 top\.noise\.shift_reg\$9\[12\]
*591 top\.noise\.shift_reg\$9\[13\]
*592 top\.noise\.shift_reg\$9\[14\]
*593 top\.noise\.shift_reg\$9\[1\]
*594 top\.noise\.shift_reg\$9\[2\]
*595 top\.noise\.shift_reg\$9\[3\]
*596 top\.noise\.shift_reg\$9\[4\]
*597 top\.noise\.shift_reg\$9\[5\]
*598 top\.noise\.shift_reg\$9\[6\]
*599 top\.noise\.shift_reg\$9\[7\]
*600 top\.noise\.shift_reg\$9\[8\]
*601 top\.noise\.shift_reg\$9\[9\]
*602 top\.noise\.shift_reg\[0\]
*603 top\.noise\.shift_reg\[10\]
*604 top\.noise\.shift_reg\[11\]
*605 top\.noise\.shift_reg\[12\]
*606 top\.noise\.shift_reg\[13\]
*607 top\.noise\.shift_reg\[14\]
*608 top\.noise\.shift_reg\[1\]
*609 top\.noise\.shift_reg\[2\]
*610 top\.noise\.shift_reg\[3\]
*611 top\.noise\.shift_reg\[4\]
*612 top\.noise\.shift_reg\[5\]
*613 top\.noise\.shift_reg\[6\]
*614 top\.noise\.shift_reg\[7\]
*615 top\.noise\.shift_reg\[8\]
*616 top\.noise\.shift_reg\[9\]
*617 FILLER_0_109
*618 FILLER_0_113
*619 FILLER_0_125
*620 FILLER_0_137
*621 FILLER_0_141
*622 FILLER_0_15
*623 FILLER_0_153
*624 FILLER_0_165
*625 FILLER_0_169
*626 FILLER_0_181
*627 FILLER_0_193
*628 FILLER_0_197
*629 FILLER_0_209
*630 FILLER_0_221
*631 FILLER_0_225
*632 FILLER_0_237
*633 FILLER_0_249
*634 FILLER_0_253
*635 FILLER_0_265
*636 FILLER_0_27
*637 FILLER_0_277
*638 FILLER_0_281
*639 FILLER_0_29
*640 FILLER_0_293
*641 FILLER_0_3
*642 FILLER_0_41
*643 FILLER_0_53
*644 FILLER_0_57
*645 FILLER_0_69
*646 FILLER_0_81
*647 FILLER_0_85
*648 FILLER_0_97
*649 FILLER_10_116
*650 FILLER_10_128
*651 FILLER_10_141
*652 FILLER_10_153
*653 FILLER_10_165
*654 FILLER_10_177
*655 FILLER_10_189
*656 FILLER_10_19
*657 FILLER_10_195
*658 FILLER_10_197
*659 FILLER_10_209
*660 FILLER_10_221
*661 FILLER_10_233
*662 FILLER_10_245
*663 FILLER_10_251
*664 FILLER_10_253
*665 FILLER_10_265
*666 FILLER_10_27
*667 FILLER_10_277
*668 FILLER_10_289
*669 FILLER_10_297
*670 FILLER_10_37
*671 FILLER_10_48
*672 FILLER_10_57
*673 FILLER_10_66
*674 FILLER_10_80
*675 FILLER_10_85
*676 FILLER_10_96
*677 FILLER_11_106
*678 FILLER_11_113
*679 FILLER_11_125
*680 FILLER_11_137
*681 FILLER_11_149
*682 FILLER_11_161
*683 FILLER_11_167
*684 FILLER_11_169
*685 FILLER_11_17
*686 FILLER_11_181
*687 FILLER_11_193
*688 FILLER_11_205
*689 FILLER_11_217
*690 FILLER_11_223
*691 FILLER_11_225
*692 FILLER_11_237
*693 FILLER_11_249
*694 FILLER_11_25
*695 FILLER_11_261
*696 FILLER_11_273
*697 FILLER_11_279
*698 FILLER_11_281
*699 FILLER_11_293
*700 FILLER_11_3
*701 FILLER_11_35
*702 FILLER_11_49
*703 FILLER_11_55
*704 FILLER_11_62
*705 FILLER_11_73
*706 FILLER_11_84
*707 FILLER_11_99
*708 FILLER_12_100
*709 FILLER_12_107
*710 FILLER_12_119
*711 FILLER_12_131
*712 FILLER_12_139
*713 FILLER_12_141
*714 FILLER_12_153
*715 FILLER_12_165
*716 FILLER_12_17
*717 FILLER_12_177
*718 FILLER_12_189
*719 FILLER_12_195
*720 FILLER_12_197
*721 FILLER_12_209
*722 FILLER_12_221
*723 FILLER_12_233
*724 FILLER_12_24
*725 FILLER_12_245
*726 FILLER_12_251
*727 FILLER_12_253
*728 FILLER_12_265
*729 FILLER_12_277
*730 FILLER_12_289
*731 FILLER_12_297
*732 FILLER_12_32
*733 FILLER_12_36
*734 FILLER_12_44
*735 FILLER_12_55
*736 FILLER_12_7
*737 FILLER_12_75
*738 FILLER_12_83
*739 FILLER_12_88
*740 FILLER_12_96
*741 FILLER_13_103
*742 FILLER_13_111
*743 FILLER_13_113
*744 FILLER_13_125
*745 FILLER_13_13
*746 FILLER_13_137
*747 FILLER_13_149
*748 FILLER_13_161
*749 FILLER_13_167
*750 FILLER_13_169
*751 FILLER_13_181
*752 FILLER_13_193
*753 FILLER_13_205
*754 FILLER_13_217
*755 FILLER_13_22
*756 FILLER_13_223
*757 FILLER_13_225
*758 FILLER_13_237
*759 FILLER_13_249
*760 FILLER_13_261
*761 FILLER_13_273
*762 FILLER_13_279
*763 FILLER_13_281
*764 FILLER_13_293
*765 FILLER_13_3
*766 FILLER_13_32
*767 FILLER_13_46
*768 FILLER_13_54
*769 FILLER_13_65
*770 FILLER_13_80
*771 FILLER_13_89
*772 FILLER_13_9
*773 FILLER_13_93
*774 FILLER_14_113
*775 FILLER_14_120
*776 FILLER_14_13
*777 FILLER_14_132
*778 FILLER_14_141
*779 FILLER_14_153
*780 FILLER_14_165
*781 FILLER_14_177
*782 FILLER_14_189
*783 FILLER_14_195
*784 FILLER_14_197
*785 FILLER_14_209
*786 FILLER_14_221
*787 FILLER_14_233
*788 FILLER_14_24
*789 FILLER_14_245
*790 FILLER_14_251
*791 FILLER_14_253
*792 FILLER_14_265
*793 FILLER_14_277
*794 FILLER_14_289
*795 FILLER_14_29
*796 FILLER_14_297
*797 FILLER_14_36
*798 FILLER_14_55
*799 FILLER_14_6
*800 FILLER_14_62
*801 FILLER_14_77
*802 FILLER_14_83
*803 FILLER_14_85
*804 FILLER_14_93
*805 FILLER_15_107
*806 FILLER_15_111
*807 FILLER_15_113
*808 FILLER_15_128
*809 FILLER_15_135
*810 FILLER_15_147
*811 FILLER_15_159
*812 FILLER_15_167
*813 FILLER_15_169
*814 FILLER_15_181
*815 FILLER_15_19
*816 FILLER_15_193
*817 FILLER_15_205
*818 FILLER_15_217
*819 FILLER_15_223
*820 FILLER_15_225
*821 FILLER_15_237
*822 FILLER_15_249
*823 FILLER_15_261
*824 FILLER_15_273
*825 FILLER_15_279
*826 FILLER_15_281
*827 FILLER_15_293
*828 FILLER_15_31
*829 FILLER_15_39
*830 FILLER_15_46
*831 FILLER_15_54
*832 FILLER_15_62
*833 FILLER_15_68
*834 FILLER_15_72
*835 FILLER_15_92
*836 FILLER_16_110
*837 FILLER_16_121
*838 FILLER_16_129
*839 FILLER_16_136
*840 FILLER_16_141
*841 FILLER_16_159
*842 FILLER_16_171
*843 FILLER_16_183
*844 FILLER_16_195
*845 FILLER_16_197
*846 FILLER_16_209
*847 FILLER_16_221
*848 FILLER_16_23
*849 FILLER_16_233
*850 FILLER_16_245
*851 FILLER_16_251
*852 FILLER_16_253
*853 FILLER_16_265
*854 FILLER_16_27
*855 FILLER_16_277
*856 FILLER_16_289
*857 FILLER_16_297
*858 FILLER_16_3
*859 FILLER_16_34
*860 FILLER_16_41
*861 FILLER_16_52
*862 FILLER_16_60
*863 FILLER_16_68
*864 FILLER_16_79
*865 FILLER_16_83
*866 FILLER_16_90
*867 FILLER_16_98
*868 FILLER_17_104
*869 FILLER_17_118
*870 FILLER_17_122
*871 FILLER_17_139
*872 FILLER_17_147
*873 FILLER_17_15
*874 FILLER_17_153
*875 FILLER_17_162
*876 FILLER_17_169
*877 FILLER_17_181
*878 FILLER_17_193
*879 FILLER_17_205
*880 FILLER_17_217
*881 FILLER_17_223
*882 FILLER_17_225
*883 FILLER_17_23
*884 FILLER_17_237
*885 FILLER_17_249
*886 FILLER_17_261
*887 FILLER_17_273
*888 FILLER_17_279
*889 FILLER_17_281
*890 FILLER_17_293
*891 FILLER_17_3
*892 FILLER_17_37
*893 FILLER_17_41
*894 FILLER_17_52
*895 FILLER_17_64
*896 FILLER_17_70
*897 FILLER_17_78
*898 FILLER_17_8
*899 FILLER_17_86
*900 FILLER_18_101
*901 FILLER_18_108
*902 FILLER_18_128
*903 FILLER_18_132
*904 FILLER_18_136
*905 FILLER_18_141
*906 FILLER_18_156
*907 FILLER_18_165
*908 FILLER_18_172
*909 FILLER_18_184
*910 FILLER_18_19
*911 FILLER_18_197
*912 FILLER_18_209
*913 FILLER_18_221
*914 FILLER_18_233
*915 FILLER_18_245
*916 FILLER_18_251
*917 FILLER_18_253
*918 FILLER_18_265
*919 FILLER_18_27
*920 FILLER_18_277
*921 FILLER_18_289
*922 FILLER_18_29
*923 FILLER_18_297
*924 FILLER_18_36
*925 FILLER_18_50
*926 FILLER_18_64
*927 FILLER_18_73
*928 FILLER_18_80
*929 FILLER_19_104
*930 FILLER_19_118
*931 FILLER_19_126
*932 FILLER_19_13
*933 FILLER_19_144
*934 FILLER_19_164
*935 FILLER_19_169
*936 FILLER_19_181
*937 FILLER_19_193
*938 FILLER_19_205
*939 FILLER_19_217
*940 FILLER_19_223
*941 FILLER_19_225
*942 FILLER_19_237
*943 FILLER_19_249
*944 FILLER_19_26
*945 FILLER_19_261
*946 FILLER_19_273
*947 FILLER_19_279
*948 FILLER_19_281
*949 FILLER_19_293
*950 FILLER_19_3
*951 FILLER_19_40
*952 FILLER_19_44
*953 FILLER_19_52
*954 FILLER_19_57
*955 FILLER_19_71
*956 FILLER_19_82
*957 FILLER_19_89
*958 FILLER_19_93
*959 FILLER_19_97
*960 FILLER_1_105
*961 FILLER_1_111
*962 FILLER_1_113
*963 FILLER_1_125
*964 FILLER_1_137
*965 FILLER_1_149
*966 FILLER_1_15
*967 FILLER_1_161
*968 FILLER_1_167
*969 FILLER_1_169
*970 FILLER_1_181
*971 FILLER_1_193
*972 FILLER_1_205
*973 FILLER_1_217
*974 FILLER_1_223
*975 FILLER_1_225
*976 FILLER_1_237
*977 FILLER_1_249
*978 FILLER_1_261
*979 FILLER_1_27
*980 FILLER_1_273
*981 FILLER_1_279
*982 FILLER_1_281
*983 FILLER_1_293
*984 FILLER_1_3
*985 FILLER_1_35
*986 FILLER_1_52
*987 FILLER_1_57
*988 FILLER_1_69
*989 FILLER_1_81
*990 FILLER_1_93
*991 FILLER_20_118
*992 FILLER_20_126
*993 FILLER_20_131
*994 FILLER_20_139
*995 FILLER_20_146
*996 FILLER_20_157
*997 FILLER_20_169
*998 FILLER_20_181
*999 FILLER_20_19
*1000 FILLER_20_193
*1001 FILLER_20_197
*1002 FILLER_20_209
*1003 FILLER_20_221
*1004 FILLER_20_233
*1005 FILLER_20_245
*1006 FILLER_20_251
*1007 FILLER_20_253
*1008 FILLER_20_265
*1009 FILLER_20_27
*1010 FILLER_20_277
*1011 FILLER_20_289
*1012 FILLER_20_297
*1013 FILLER_20_33
*1014 FILLER_20_47
*1015 FILLER_20_58
*1016 FILLER_20_66
*1017 FILLER_20_72
*1018 FILLER_20_80
*1019 FILLER_20_94
*1020 FILLER_21_104
*1021 FILLER_21_116
*1022 FILLER_21_138
*1023 FILLER_21_145
*1024 FILLER_21_15
*1025 FILLER_21_153
*1026 FILLER_21_161
*1027 FILLER_21_167
*1028 FILLER_21_172
*1029 FILLER_21_179
*1030 FILLER_21_191
*1031 FILLER_21_203
*1032 FILLER_21_215
*1033 FILLER_21_223
*1034 FILLER_21_225
*1035 FILLER_21_237
*1036 FILLER_21_249
*1037 FILLER_21_261
*1038 FILLER_21_273
*1039 FILLER_21_279
*1040 FILLER_21_28
*1041 FILLER_21_281
*1042 FILLER_21_293
*1043 FILLER_21_3
*1044 FILLER_21_44
*1045 FILLER_21_52
*1046 FILLER_21_65
*1047 FILLER_21_73
*1048 FILLER_21_84
*1049 FILLER_22_100
*1050 FILLER_22_11
*1051 FILLER_22_124
*1052 FILLER_22_132
*1053 FILLER_22_136
*1054 FILLER_22_144
*1055 FILLER_22_156
*1056 FILLER_22_174
*1057 FILLER_22_183
*1058 FILLER_22_195
*1059 FILLER_22_197
*1060 FILLER_22_209
*1061 FILLER_22_221
*1062 FILLER_22_233
*1063 FILLER_22_24
*1064 FILLER_22_245
*1065 FILLER_22_251
*1066 FILLER_22_253
*1067 FILLER_22_265
*1068 FILLER_22_277
*1069 FILLER_22_289
*1070 FILLER_22_297
*1071 FILLER_22_3
*1072 FILLER_22_32
*1073 FILLER_22_46
*1074 FILLER_22_54
*1075 FILLER_22_7
*1076 FILLER_22_76
*1077 FILLER_22_85
*1078 FILLER_22_92
*1079 FILLER_23_108
*1080 FILLER_23_113
*1081 FILLER_23_121
*1082 FILLER_23_130
*1083 FILLER_23_139
*1084 FILLER_23_159
*1085 FILLER_23_167
*1086 FILLER_23_169
*1087 FILLER_23_188
*1088 FILLER_23_19
*1089 FILLER_23_200
*1090 FILLER_23_212
*1091 FILLER_23_225
*1092 FILLER_23_237
*1093 FILLER_23_249
*1094 FILLER_23_261
*1095 FILLER_23_273
*1096 FILLER_23_279
*1097 FILLER_23_281
*1098 FILLER_23_293
*1099 FILLER_23_35
*1100 FILLER_23_49
*1101 FILLER_23_55
*1102 FILLER_23_65
*1103 FILLER_23_77
*1104 FILLER_23_95
*1105 FILLER_24_11
*1106 FILLER_24_113
*1107 FILLER_24_119
*1108 FILLER_24_136
*1109 FILLER_24_144
*1110 FILLER_24_152
*1111 FILLER_24_156
*1112 FILLER_24_165
*1113 FILLER_24_171
*1114 FILLER_24_177
*1115 FILLER_24_186
*1116 FILLER_24_194
*1117 FILLER_24_197
*1118 FILLER_24_209
*1119 FILLER_24_221
*1120 FILLER_24_23
*1121 FILLER_24_233
*1122 FILLER_24_245
*1123 FILLER_24_251
*1124 FILLER_24_253
*1125 FILLER_24_265
*1126 FILLER_24_27
*1127 FILLER_24_277
*1128 FILLER_24_289
*1129 FILLER_24_297
*1130 FILLER_24_3
*1131 FILLER_24_38
*1132 FILLER_24_42
*1133 FILLER_24_59
*1134 FILLER_24_73
*1135 FILLER_24_80
*1136 FILLER_24_85
*1137 FILLER_24_93
*1138 FILLER_25_107
*1139 FILLER_25_111
*1140 FILLER_25_129
*1141 FILLER_25_137
*1142 FILLER_25_144
*1143 FILLER_25_164
*1144 FILLER_25_169
*1145 FILLER_25_18
*1146 FILLER_25_187
*1147 FILLER_25_199
*1148 FILLER_25_211
*1149 FILLER_25_223
*1150 FILLER_25_225
*1151 FILLER_25_237
*1152 FILLER_25_249
*1153 FILLER_25_261
*1154 FILLER_25_273
*1155 FILLER_25_279
*1156 FILLER_25_281
*1157 FILLER_25_293
*1158 FILLER_25_3
*1159 FILLER_25_32
*1160 FILLER_25_36
*1161 FILLER_25_48
*1162 FILLER_25_66
*1163 FILLER_25_7
*1164 FILLER_25_77
*1165 FILLER_25_81
*1166 FILLER_25_98
*1167 FILLER_26_102
*1168 FILLER_26_11
*1169 FILLER_26_117
*1170 FILLER_26_126
*1171 FILLER_26_132
*1172 FILLER_26_136
*1173 FILLER_26_141
*1174 FILLER_26_158
*1175 FILLER_26_167
*1176 FILLER_26_174
*1177 FILLER_26_181
*1178 FILLER_26_193
*1179 FILLER_26_197
*1180 FILLER_26_209
*1181 FILLER_26_221
*1182 FILLER_26_233
*1183 FILLER_26_24
*1184 FILLER_26_245
*1185 FILLER_26_251
*1186 FILLER_26_253
*1187 FILLER_26_265
*1188 FILLER_26_277
*1189 FILLER_26_289
*1190 FILLER_26_29
*1191 FILLER_26_297
*1192 FILLER_26_37
*1193 FILLER_26_48
*1194 FILLER_26_54
*1195 FILLER_26_71
*1196 FILLER_26_80
*1197 FILLER_26_95
*1198 FILLER_27_108
*1199 FILLER_27_113
*1200 FILLER_27_117
*1201 FILLER_27_137
*1202 FILLER_27_157
*1203 FILLER_27_165
*1204 FILLER_27_172
*1205 FILLER_27_184
*1206 FILLER_27_19
*1207 FILLER_27_196
*1208 FILLER_27_208
*1209 FILLER_27_220
*1210 FILLER_27_225
*1211 FILLER_27_237
*1212 FILLER_27_249
*1213 FILLER_27_25
*1214 FILLER_27_261
*1215 FILLER_27_273
*1216 FILLER_27_279
*1217 FILLER_27_281
*1218 FILLER_27_29
*1219 FILLER_27_293
*1220 FILLER_27_49
*1221 FILLER_27_55
*1222 FILLER_27_62
*1223 FILLER_27_86
*1224 FILLER_28_102
*1225 FILLER_28_11
*1226 FILLER_28_122
*1227 FILLER_28_129
*1228 FILLER_28_136
*1229 FILLER_28_141
*1230 FILLER_28_150
*1231 FILLER_28_154
*1232 FILLER_28_158
*1233 FILLER_28_166
*1234 FILLER_28_183
*1235 FILLER_28_192
*1236 FILLER_28_197
*1237 FILLER_28_209
*1238 FILLER_28_221
*1239 FILLER_28_233
*1240 FILLER_28_24
*1241 FILLER_28_245
*1242 FILLER_28_251
*1243 FILLER_28_253
*1244 FILLER_28_265
*1245 FILLER_28_277
*1246 FILLER_28_289
*1247 FILLER_28_29
*1248 FILLER_28_297
*1249 FILLER_28_37
*1250 FILLER_28_48
*1251 FILLER_28_68
*1252 FILLER_28_74
*1253 FILLER_28_80
*1254 FILLER_28_85
*1255 FILLER_29_108
*1256 FILLER_29_116
*1257 FILLER_29_125
*1258 FILLER_29_133
*1259 FILLER_29_15
*1260 FILLER_29_151
*1261 FILLER_29_163
*1262 FILLER_29_167
*1263 FILLER_29_174
*1264 FILLER_29_178
*1265 FILLER_29_182
*1266 FILLER_29_194
*1267 FILLER_29_206
*1268 FILLER_29_218
*1269 FILLER_29_225
*1270 FILLER_29_237
*1271 FILLER_29_249
*1272 FILLER_29_261
*1273 FILLER_29_273
*1274 FILLER_29_279
*1275 FILLER_29_28
*1276 FILLER_29_281
*1277 FILLER_29_293
*1278 FILLER_29_3
*1279 FILLER_29_48
*1280 FILLER_29_60
*1281 FILLER_29_82
*1282 FILLER_2_109
*1283 FILLER_2_121
*1284 FILLER_2_133
*1285 FILLER_2_139
*1286 FILLER_2_141
*1287 FILLER_2_15
*1288 FILLER_2_153
*1289 FILLER_2_165
*1290 FILLER_2_177
*1291 FILLER_2_189
*1292 FILLER_2_195
*1293 FILLER_2_197
*1294 FILLER_2_209
*1295 FILLER_2_221
*1296 FILLER_2_233
*1297 FILLER_2_245
*1298 FILLER_2_251
*1299 FILLER_2_253
*1300 FILLER_2_265
*1301 FILLER_2_27
*1302 FILLER_2_277
*1303 FILLER_2_289
*1304 FILLER_2_29
*1305 FILLER_2_297
*1306 FILLER_2_3
*1307 FILLER_2_41
*1308 FILLER_2_58
*1309 FILLER_2_70
*1310 FILLER_2_82
*1311 FILLER_2_85
*1312 FILLER_2_97
*1313 FILLER_30_100
*1314 FILLER_30_107
*1315 FILLER_30_127
*1316 FILLER_30_136
*1317 FILLER_30_146
*1318 FILLER_30_170
*1319 FILLER_30_19
*1320 FILLER_30_190
*1321 FILLER_30_197
*1322 FILLER_30_209
*1323 FILLER_30_221
*1324 FILLER_30_233
*1325 FILLER_30_245
*1326 FILLER_30_251
*1327 FILLER_30_253
*1328 FILLER_30_265
*1329 FILLER_30_27
*1330 FILLER_30_277
*1331 FILLER_30_289
*1332 FILLER_30_297
*1333 FILLER_30_37
*1334 FILLER_30_59
*1335 FILLER_30_67
*1336 FILLER_30_80
*1337 FILLER_30_85
*1338 FILLER_30_89
*1339 FILLER_30_93
*1340 FILLER_31_108
*1341 FILLER_31_113
*1342 FILLER_31_137
*1343 FILLER_31_157
*1344 FILLER_31_164
*1345 FILLER_31_174
*1346 FILLER_31_180
*1347 FILLER_31_186
*1348 FILLER_31_198
*1349 FILLER_31_210
*1350 FILLER_31_222
*1351 FILLER_31_225
*1352 FILLER_31_237
*1353 FILLER_31_249
*1354 FILLER_31_261
*1355 FILLER_31_273
*1356 FILLER_31_279
*1357 FILLER_31_281
*1358 FILLER_31_293
*1359 FILLER_31_3
*1360 FILLER_31_33
*1361 FILLER_31_39
*1362 FILLER_31_44
*1363 FILLER_31_52
*1364 FILLER_31_57
*1365 FILLER_31_64
*1366 FILLER_31_74
*1367 FILLER_31_80
*1368 FILLER_31_9
*1369 FILLER_31_97
*1370 FILLER_32_113
*1371 FILLER_32_121
*1372 FILLER_32_129
*1373 FILLER_32_136
*1374 FILLER_32_141
*1375 FILLER_32_153
*1376 FILLER_32_173
*1377 FILLER_32_179
*1378 FILLER_32_18
*1379 FILLER_32_185
*1380 FILLER_32_192
*1381 FILLER_32_197
*1382 FILLER_32_209
*1383 FILLER_32_221
*1384 FILLER_32_233
*1385 FILLER_32_245
*1386 FILLER_32_251
*1387 FILLER_32_253
*1388 FILLER_32_26
*1389 FILLER_32_265
*1390 FILLER_32_277
*1391 FILLER_32_289
*1392 FILLER_32_29
*1393 FILLER_32_297
*1394 FILLER_32_3
*1395 FILLER_32_35
*1396 FILLER_32_39
*1397 FILLER_32_48
*1398 FILLER_32_70
*1399 FILLER_32_80
*1400 FILLER_32_91
*1401 FILLER_33_105
*1402 FILLER_33_111
*1403 FILLER_33_113
*1404 FILLER_33_117
*1405 FILLER_33_123
*1406 FILLER_33_145
*1407 FILLER_33_154
*1408 FILLER_33_160
*1409 FILLER_33_164
*1410 FILLER_33_169
*1411 FILLER_33_189
*1412 FILLER_33_19
*1413 FILLER_33_201
*1414 FILLER_33_213
*1415 FILLER_33_221
*1416 FILLER_33_225
*1417 FILLER_33_237
*1418 FILLER_33_249
*1419 FILLER_33_261
*1420 FILLER_33_27
*1421 FILLER_33_273
*1422 FILLER_33_279
*1423 FILLER_33_281
*1424 FILLER_33_293
*1425 FILLER_33_3
*1426 FILLER_33_35
*1427 FILLER_33_39
*1428 FILLER_33_47
*1429 FILLER_33_52
*1430 FILLER_33_57
*1431 FILLER_33_61
*1432 FILLER_33_81
*1433 FILLER_33_9
*1434 FILLER_33_98
*1435 FILLER_34_104
*1436 FILLER_34_124
*1437 FILLER_34_133
*1438 FILLER_34_139
*1439 FILLER_34_141
*1440 FILLER_34_152
*1441 FILLER_34_164
*1442 FILLER_34_176
*1443 FILLER_34_180
*1444 FILLER_34_19
*1445 FILLER_34_192
*1446 FILLER_34_197
*1447 FILLER_34_209
*1448 FILLER_34_221
*1449 FILLER_34_233
*1450 FILLER_34_245
*1451 FILLER_34_251
*1452 FILLER_34_253
*1453 FILLER_34_265
*1454 FILLER_34_27
*1455 FILLER_34_277
*1456 FILLER_34_289
*1457 FILLER_34_29
*1458 FILLER_34_297
*1459 FILLER_34_3
*1460 FILLER_34_46
*1461 FILLER_34_53
*1462 FILLER_34_62
*1463 FILLER_34_71
*1464 FILLER_34_83
*1465 FILLER_34_85
*1466 FILLER_34_9
*1467 FILLER_34_91
*1468 FILLER_34_99
*1469 FILLER_35_103
*1470 FILLER_35_111
*1471 FILLER_35_113
*1472 FILLER_35_117
*1473 FILLER_35_132
*1474 FILLER_35_141
*1475 FILLER_35_161
*1476 FILLER_35_167
*1477 FILLER_35_169
*1478 FILLER_35_18
*1479 FILLER_35_189
*1480 FILLER_35_201
*1481 FILLER_35_213
*1482 FILLER_35_22
*1483 FILLER_35_221
*1484 FILLER_35_225
*1485 FILLER_35_237
*1486 FILLER_35_249
*1487 FILLER_35_261
*1488 FILLER_35_273
*1489 FILLER_35_279
*1490 FILLER_35_281
*1491 FILLER_35_293
*1492 FILLER_35_3
*1493 FILLER_35_39
*1494 FILLER_35_43
*1495 FILLER_35_49
*1496 FILLER_35_55
*1497 FILLER_35_57
*1498 FILLER_35_68
*1499 FILLER_35_83
*1500 FILLER_36_101
*1501 FILLER_36_118
*1502 FILLER_36_129
*1503 FILLER_36_136
*1504 FILLER_36_141
*1505 FILLER_36_150
*1506 FILLER_36_170
*1507 FILLER_36_178
*1508 FILLER_36_18
*1509 FILLER_36_184
*1510 FILLER_36_191
*1511 FILLER_36_195
*1512 FILLER_36_197
*1513 FILLER_36_209
*1514 FILLER_36_221
*1515 FILLER_36_233
*1516 FILLER_36_245
*1517 FILLER_36_251
*1518 FILLER_36_253
*1519 FILLER_36_26
*1520 FILLER_36_265
*1521 FILLER_36_277
*1522 FILLER_36_289
*1523 FILLER_36_297
*1524 FILLER_36_3
*1525 FILLER_36_32
*1526 FILLER_36_60
*1527 FILLER_36_80
*1528 FILLER_36_85
*1529 FILLER_36_93
*1530 FILLER_37_104
*1531 FILLER_37_113
*1532 FILLER_37_131
*1533 FILLER_37_140
*1534 FILLER_37_147
*1535 FILLER_37_164
*1536 FILLER_37_169
*1537 FILLER_37_17
*1538 FILLER_37_188
*1539 FILLER_37_200
*1540 FILLER_37_212
*1541 FILLER_37_225
*1542 FILLER_37_23
*1543 FILLER_37_237
*1544 FILLER_37_249
*1545 FILLER_37_261
*1546 FILLER_37_273
*1547 FILLER_37_279
*1548 FILLER_37_281
*1549 FILLER_37_29
*1550 FILLER_37_293
*1551 FILLER_37_3
*1552 FILLER_37_36
*1553 FILLER_37_45
*1554 FILLER_37_52
*1555 FILLER_37_57
*1556 FILLER_37_62
*1557 FILLER_37_70
*1558 FILLER_37_74
*1559 FILLER_37_80
*1560 FILLER_37_86
*1561 FILLER_37_9
*1562 FILLER_37_94
*1563 FILLER_37_98
*1564 FILLER_38_103
*1565 FILLER_38_107
*1566 FILLER_38_111
*1567 FILLER_38_118
*1568 FILLER_38_132
*1569 FILLER_38_157
*1570 FILLER_38_166
*1571 FILLER_38_173
*1572 FILLER_38_184
*1573 FILLER_38_19
*1574 FILLER_38_197
*1575 FILLER_38_209
*1576 FILLER_38_221
*1577 FILLER_38_233
*1578 FILLER_38_245
*1579 FILLER_38_251
*1580 FILLER_38_253
*1581 FILLER_38_265
*1582 FILLER_38_27
*1583 FILLER_38_277
*1584 FILLER_38_289
*1585 FILLER_38_297
*1586 FILLER_38_45
*1587 FILLER_38_54
*1588 FILLER_38_76
*1589 FILLER_38_85
*1590 FILLER_38_96
*1591 FILLER_39_108
*1592 FILLER_39_11
*1593 FILLER_39_129
*1594 FILLER_39_137
*1595 FILLER_39_144
*1596 FILLER_39_164
*1597 FILLER_39_185
*1598 FILLER_39_197
*1599 FILLER_39_20
*1600 FILLER_39_209
*1601 FILLER_39_221