*SPEF "ieee 1481-1999"
*DESIGN "chrisruk_matrix"
*DATE "11:11:11 Fri 11 11, 1111"
*VENDOR "OpenRCX"
*PROGRAM "Parallel Extraction"
*VERSION "1.0"
*DESIGN_FLOW "NAME_SCOPE LOCAL" "PIN_CAP NONE"
*DIVIDER /
*DELIMITER :
*BUS_DELIMITER []
*T_UNIT 1 NS
*C_UNIT 1 PF
*R_UNIT 1 OHM
*L_UNIT 1 HENRY

*NAME_MAP
*1 io_in[0]
*2 io_in[1]
*3 io_in[2]
*4 io_in[3]
*5 io_in[4]
*6 io_in[5]
*7 io_in[6]
*8 io_in[7]
*9 io_out[0]
*10 io_out[1]
*11 net3
*12 net4
*13 net5
*14 net6
*15 net7
*16 net8
*19 _000_
*20 _001_
*21 _002_
*22 _003_
*23 _004_
*24 _005_
*25 _006_
*26 _007_
*27 _008_
*28 _009_
*29 _010_
*30 _011_
*31 _012_
*32 _013_
*33 _014_
*34 _015_
*35 _016_
*36 _017_
*37 _018_
*38 _019_
*39 _020_
*40 _021_
*41 _022_
*42 _023_
*43 _024_
*44 _025_
*45 _026_
*46 _027_
*47 _028_
*48 _029_
*49 _030_
*50 _031_
*51 _032_
*52 _033_
*53 _034_
*54 _035_
*55 _036_
*56 _037_
*57 _038_
*58 _039_
*59 _040_
*60 _041_
*61 _042_
*62 _043_
*63 _044_
*64 _045_
*65 _046_
*66 _047_
*67 _048_
*68 _049_
*69 _050_
*70 _051_
*71 _052_
*72 _053_
*73 _054_
*74 _055_
*75 _056_
*76 _057_
*77 _058_
*78 _059_
*79 _060_
*80 _061_
*81 _062_
*82 _063_
*83 _064_
*84 _065_
*85 _066_
*86 _067_
*87 _068_
*88 _069_
*89 _070_
*90 _071_
*91 _072_
*92 _073_
*93 _074_
*94 _075_
*95 _076_
*96 _077_
*97 _078_
*98 _079_
*99 _080_
*100 _081_
*101 _082_
*102 _083_
*103 _084_
*104 _085_
*105 _086_
*106 _087_
*107 _088_
*108 _089_
*109 _090_
*110 _091_
*111 _092_
*112 _093_
*113 _094_
*114 _095_
*115 _096_
*116 _097_
*117 _098_
*118 _099_
*119 _100_
*120 _101_
*121 _102_
*122 _103_
*123 _104_
*124 _105_
*125 _106_
*126 _107_
*127 _108_
*128 _109_
*129 _110_
*130 _111_
*131 _112_
*132 _113_
*133 _114_
*134 _115_
*135 _116_
*136 _117_
*137 _118_
*138 _119_
*139 _120_
*140 _121_
*141 _122_
*142 _123_
*143 _124_
*144 _125_
*145 _126_
*146 _127_
*147 _128_
*148 _129_
*149 _130_
*150 _131_
*151 _132_
*152 _133_
*153 _134_
*154 _135_
*155 _136_
*156 _137_
*157 _138_
*158 _139_
*159 _140_
*160 _141_
*161 _142_
*162 _143_
*163 _144_
*164 _145_
*165 _146_
*166 _147_
*167 _148_
*168 _149_
*169 _150_
*170 _151_
*171 _152_
*172 _153_
*173 _154_
*174 _155_
*175 _156_
*176 _157_
*177 _158_
*178 _159_
*179 _160_
*180 _161_
*181 _162_
*182 _163_
*183 _164_
*184 _165_
*185 _166_
*186 _167_
*187 _168_
*188 _169_
*189 _170_
*190 _171_
*191 _172_
*192 _173_
*193 _174_
*194 _175_
*195 _176_
*196 _177_
*197 _178_
*198 _179_
*199 _180_
*200 _181_
*201 _182_
*202 _183_
*203 _184_
*204 _185_
*205 _186_
*206 _187_
*207 _188_
*208 _189_
*209 _190_
*210 _191_
*211 _192_
*212 _193_
*213 _194_
*214 _195_
*215 _196_
*216 _197_
*217 _198_
*218 _199_
*219 _200_
*220 _201_
*221 _202_
*222 _203_
*223 _204_
*224 _205_
*225 _206_
*226 _207_
*227 _208_
*228 _209_
*229 _210_
*230 _211_
*231 _212_
*232 _213_
*233 _214_
*234 _215_
*235 _216_
*236 _217_
*237 _218_
*238 _219_
*239 _220_
*240 _221_
*241 _222_
*242 _223_
*243 _224_
*244 _225_
*245 _226_
*246 _227_
*247 _228_
*248 _229_
*249 _230_
*250 _231_
*251 _232_
*252 _233_
*253 _234_
*254 _235_
*255 _236_
*256 _237_
*257 _238_
*258 _239_
*259 _240_
*260 _241_
*261 _242_
*262 _243_
*263 _244_
*264 _245_
*265 _246_
*266 _247_
*267 _248_
*268 _249_
*269 _250_
*270 _251_
*271 _252_
*272 _253_
*273 _254_
*274 _255_
*275 _256_
*276 _257_
*277 _258_
*278 _259_
*279 _260_
*280 _261_
*281 _262_
*282 _263_
*283 _264_
*284 _265_
*285 _266_
*286 _267_
*287 _268_
*288 _269_
*289 _270_
*290 _271_
*291 _272_
*292 _273_
*293 _274_
*294 _275_
*295 _276_
*296 _277_
*297 _278_
*298 _279_
*299 _280_
*300 _281_
*301 _282_
*302 _283_
*303 _284_
*304 _285_
*305 _286_
*306 _287_
*307 _288_
*308 _289_
*309 _290_
*310 _291_
*311 _292_
*312 _293_
*313 _294_
*314 _295_
*315 _296_
*316 _297_
*317 _298_
*318 _299_
*319 _300_
*320 _301_
*321 _302_
*322 _303_
*323 _304_
*324 _305_
*325 _306_
*326 _307_
*327 _308_
*328 _309_
*329 _310_
*330 _311_
*331 _312_
*332 _313_
*333 _314_
*334 _315_
*335 _316_
*336 _317_
*337 _318_
*338 _319_
*339 _320_
*340 _321_
*341 _322_
*342 _323_
*343 _324_
*344 _325_
*345 _326_
*346 _327_
*347 _328_
*348 _329_
*349 _330_
*350 _331_
*351 _332_
*352 _333_
*353 _334_
*354 _335_
*355 _336_
*356 _337_
*357 _338_
*358 _339_
*359 _340_
*360 _341_
*361 _342_
*362 _343_
*363 _344_
*364 _345_
*365 _346_
*366 _347_
*367 _348_
*368 _349_
*369 _350_
*370 _351_
*371 _352_
*372 _353_
*373 _354_
*374 _355_
*375 _356_
*376 _357_
*377 _358_
*378 _359_
*379 _360_
*380 _361_
*381 _362_
*382 _363_
*383 _364_
*384 _365_
*385 _366_
*386 _367_
*387 _368_
*388 _369_
*389 _370_
*390 _371_
*391 clknet_0_io_in[0]
*392 clknet_3_0__leaf_io_in[0]
*393 clknet_3_1__leaf_io_in[0]
*394 clknet_3_2__leaf_io_in[0]
*395 clknet_3_3__leaf_io_in[0]
*396 clknet_3_4__leaf_io_in[0]
*397 clknet_3_5__leaf_io_in[0]
*398 clknet_3_6__leaf_io_in[0]
*399 clknet_3_7__leaf_io_in[0]
*400 clock_1
*401 counter1\[0\]
*402 counter1\[10\]
*403 counter1\[11\]
*404 counter1\[1\]
*405 counter1\[2\]
*406 counter1\[3\]
*407 counter1\[4\]
*408 counter1\[5\]
*409 counter1\[6\]
*410 counter1\[7\]
*411 counter1\[8\]
*412 counter1\[9\]
*413 digit1_cache
*414 digit2_cache
*415 display\[16\]
*416 display\[17\]
*417 display\[18\]
*418 display\[19\]
*419 display\[20\]
*420 display\[21\]
*421 display\[22\]
*422 display\[23\]
*423 display\[24\]
*424 display\[25\]
*425 display\[26\]
*426 display\[27\]
*427 display\[28\]
*428 display\[29\]
*429 display\[30\]
*430 display\[31\]
*431 display\[32\]
*432 display\[33\]
*433 display\[34\]
*434 display\[35\]
*435 display\[36\]
*436 display\[37\]
*437 display\[38\]
*438 display\[39\]
*439 display\[42\]
*440 display\[43\]
*441 display\[44\]
*442 display\[45\]
*443 display\[46\]
*444 display\[47\]
*445 display\[48\]
*446 display\[49\]
*447 display\[50\]
*448 display\[51\]
*449 display\[52\]
*450 display\[53\]
*451 display\[54\]
*452 display\[55\]
*453 first
*454 idx\[0\]
*455 idx\[1\]
*456 idx\[2\]
*457 idx\[3\]
*458 idx\[4\]
*459 idx\[5\]
*460 net1
*461 net2
*462 pidx\[0\]
*463 pidx\[1\]
*464 pidx\[2\]
*465 pidx\[3\]
*466 pidx\[4\]
*467 pidx\[5\]
*468 shift\[0\]
*469 shift\[1\]
*470 shift\[2\]
*471 strip_1
*472 ANTENNA_0
*473 ANTENNA_1
*474 ANTENNA_2
*475 ANTENNA_3
*476 ANTENNA_4
*477 ANTENNA_5
*478 ANTENNA_6
*479 ANTENNA_7
*480 ANTENNA_8
*481 FILLER_0_107
*482 FILLER_0_111
*483 FILLER_0_129
*484 FILLER_0_136
*485 FILLER_0_157
*486 FILLER_0_164
*487 FILLER_0_169
*488 FILLER_0_180
*489 FILLER_0_188
*490 FILLER_0_200
*491 FILLER_0_212
*492 FILLER_0_225
*493 FILLER_0_237
*494 FILLER_0_24
*495 FILLER_0_249
*496 FILLER_0_253
*497 FILLER_0_265
*498 FILLER_0_277
*499 FILLER_0_281
*500 FILLER_0_29
*501 FILLER_0_293
*502 FILLER_0_3
*503 FILLER_0_53
*504 FILLER_0_7
*505 FILLER_0_73
*506 FILLER_0_80
*507 FILLER_0_85
*508 FILLER_10_105
*509 FILLER_10_117
*510 FILLER_10_123
*511 FILLER_10_134
*512 FILLER_10_146
*513 FILLER_10_154
*514 FILLER_10_161
*515 FILLER_10_169
*516 FILLER_10_177
*517 FILLER_10_183
*518 FILLER_10_190
*519 FILLER_10_197
*520 FILLER_10_20
*521 FILLER_10_209
*522 FILLER_10_225
*523 FILLER_10_237
*524 FILLER_10_249
*525 FILLER_10_253
*526 FILLER_10_265
*527 FILLER_10_277
*528 FILLER_10_289
*529 FILLER_10_29
*530 FILLER_10_297
*531 FILLER_10_3
*532 FILLER_10_41
*533 FILLER_10_47
*534 FILLER_10_68
*535 FILLER_10_80
*536 FILLER_10_85
*537 FILLER_11_103
*538 FILLER_11_111
*539 FILLER_11_113
*540 FILLER_11_117
*541 FILLER_11_123
*542 FILLER_11_131
*543 FILLER_11_139
*544 FILLER_11_146
*545 FILLER_11_15
*546 FILLER_11_158
*547 FILLER_11_166
*548 FILLER_11_174
*549 FILLER_11_182
*550 FILLER_11_191
*551 FILLER_11_203
*552 FILLER_11_209
*553 FILLER_11_220
*554 FILLER_11_225
*555 FILLER_11_237
*556 FILLER_11_249
*557 FILLER_11_261
*558 FILLER_11_273
*559 FILLER_11_279
*560 FILLER_11_281
*561 FILLER_11_293
*562 FILLER_11_3
*563 FILLER_11_36
*564 FILLER_11_48
*565 FILLER_11_57
*566 FILLER_11_63
*567 FILLER_11_83
*568 FILLER_12_103
*569 FILLER_12_115
*570 FILLER_12_123
*571 FILLER_12_132
*572 FILLER_12_141
*573 FILLER_12_151
*574 FILLER_12_158
*575 FILLER_12_172
*576 FILLER_12_176
*577 FILLER_12_182
*578 FILLER_12_186
*579 FILLER_12_190
*580 FILLER_12_197
*581 FILLER_12_207
*582 FILLER_12_219
*583 FILLER_12_231
*584 FILLER_12_24
*585 FILLER_12_243
*586 FILLER_12_251
*587 FILLER_12_253
*588 FILLER_12_265
*589 FILLER_12_277
*590 FILLER_12_289
*591 FILLER_12_29
*592 FILLER_12_297
*593 FILLER_12_3
*594 FILLER_12_47
*595 FILLER_12_67
*596 FILLER_12_7
*597 FILLER_12_79
*598 FILLER_12_83
*599 FILLER_12_85
*600 FILLER_13_103
*601 FILLER_13_11
*602 FILLER_13_111
*603 FILLER_13_113
*604 FILLER_13_125
*605 FILLER_13_137
*606 FILLER_13_149
*607 FILLER_13_161
*608 FILLER_13_167
*609 FILLER_13_175
*610 FILLER_13_182
*611 FILLER_13_190
*612 FILLER_13_199
*613 FILLER_13_215
*614 FILLER_13_223
*615 FILLER_13_233
*616 FILLER_13_245
*617 FILLER_13_257
*618 FILLER_13_269
*619 FILLER_13_277
*620 FILLER_13_281
*621 FILLER_13_293
*622 FILLER_13_3
*623 FILLER_13_30
*624 FILLER_13_34
*625 FILLER_13_52
*626 FILLER_13_57
*627 FILLER_13_65
*628 FILLER_13_83
*629 FILLER_14_106
*630 FILLER_14_112
*631 FILLER_14_117
*632 FILLER_14_128
*633 FILLER_14_148
*634 FILLER_14_156
*635 FILLER_14_162
*636 FILLER_14_170
*637 FILLER_14_180
*638 FILLER_14_189
*639 FILLER_14_195
*640 FILLER_14_202
*641 FILLER_14_229
*642 FILLER_14_24
*643 FILLER_14_241
*644 FILLER_14_249
*645 FILLER_14_253
*646 FILLER_14_265
*647 FILLER_14_277
*648 FILLER_14_289
*649 FILLER_14_29
*650 FILLER_14_297
*651 FILLER_14_3
*652 FILLER_14_33
*653 FILLER_14_50
*654 FILLER_14_7
*655 FILLER_14_70
*656 FILLER_14_82
*657 FILLER_14_85
*658 FILLER_14_89
*659 FILLER_15_100
*660 FILLER_15_113
*661 FILLER_15_118
*662 FILLER_15_128
*663 FILLER_15_135
*664 FILLER_15_143
*665 FILLER_15_148
*666 FILLER_15_158
*667 FILLER_15_166
*668 FILLER_15_169
*669 FILLER_15_177
*670 FILLER_15_182
*671 FILLER_15_186
*672 FILLER_15_192
*673 FILLER_15_207
*674 FILLER_15_215
*675 FILLER_15_223
*676 FILLER_15_225
*677 FILLER_15_23
*678 FILLER_15_237
*679 FILLER_15_249
*680 FILLER_15_261
*681 FILLER_15_273
*682 FILLER_15_279
*683 FILLER_15_281
*684 FILLER_15_293
*685 FILLER_15_3
*686 FILLER_15_35
*687 FILLER_15_52
*688 FILLER_15_57
*689 FILLER_15_69
*690 FILLER_15_88
*691 FILLER_16_109
*692 FILLER_16_115
*693 FILLER_16_120
*694 FILLER_16_128
*695 FILLER_16_141
*696 FILLER_16_153
*697 FILLER_16_165
*698 FILLER_16_171
*699 FILLER_16_177
*700 FILLER_16_185
*701 FILLER_16_192
*702 FILLER_16_197
*703 FILLER_16_20
*704 FILLER_16_207
*705 FILLER_16_220
*706 FILLER_16_232
*707 FILLER_16_24
*708 FILLER_16_244
*709 FILLER_16_253
*710 FILLER_16_265
*711 FILLER_16_277
*712 FILLER_16_289
*713 FILLER_16_29
*714 FILLER_16_297
*715 FILLER_16_41
*716 FILLER_16_65
*717 FILLER_16_77
*718 FILLER_16_83
*719 FILLER_16_85
*720 FILLER_16_97
*721 FILLER_17_105
*722 FILLER_17_111
*723 FILLER_17_118
*724 FILLER_17_130
*725 FILLER_17_142
*726 FILLER_17_15
*727 FILLER_17_150
*728 FILLER_17_156
*729 FILLER_17_164
*730 FILLER_17_179
*731 FILLER_17_189
*732 FILLER_17_207
*733 FILLER_17_219
*734 FILLER_17_223
*735 FILLER_17_225
*736 FILLER_17_237
*737 FILLER_17_249
*738 FILLER_17_261
*739 FILLER_17_273
*740 FILLER_17_279
*741 FILLER_17_281
*742 FILLER_17_293
*743 FILLER_17_3
*744 FILLER_17_36
*745 FILLER_17_48
*746 FILLER_17_57
*747 FILLER_17_69
*748 FILLER_17_81
*749 FILLER_17_93
*750 FILLER_17_99
*751 FILLER_18_105
*752 FILLER_18_117
*753 FILLER_18_130
*754 FILLER_18_138
*755 FILLER_18_141
*756 FILLER_18_148
*757 FILLER_18_158
*758 FILLER_18_166
*759 FILLER_18_174
*760 FILLER_18_182
*761 FILLER_18_192
*762 FILLER_18_197
*763 FILLER_18_201
*764 FILLER_18_209
*765 FILLER_18_215
*766 FILLER_18_223
*767 FILLER_18_235
*768 FILLER_18_24
*769 FILLER_18_247
*770 FILLER_18_251
*771 FILLER_18_253
*772 FILLER_18_265
*773 FILLER_18_277
*774 FILLER_18_289
*775 FILLER_18_297
*776 FILLER_18_3
*777 FILLER_18_46
*778 FILLER_18_58
*779 FILLER_18_7
*780 FILLER_18_80
*781 FILLER_18_85
*782 FILLER_19_105
*783 FILLER_19_111
*784 FILLER_19_113
*785 FILLER_19_121
*786 FILLER_19_131
*787 FILLER_19_140
*788 FILLER_19_15
*789 FILLER_19_152
*790 FILLER_19_159
*791 FILLER_19_167
*792 FILLER_19_174
*793 FILLER_19_181
*794 FILLER_19_189
*795 FILLER_19_193
*796 FILLER_19_203
*797 FILLER_19_220
*798 FILLER_19_228
*799 FILLER_19_240
*800 FILLER_19_252
*801 FILLER_19_264
*802 FILLER_19_276
*803 FILLER_19_281
*804 FILLER_19_293
*805 FILLER_19_3
*806 FILLER_19_32
*807 FILLER_19_52
*808 FILLER_19_57
*809 FILLER_19_85
*810 FILLER_1_107
*811 FILLER_1_111
*812 FILLER_1_129
*813 FILLER_1_144
*814 FILLER_1_148
*815 FILLER_1_15
*816 FILLER_1_157
*817 FILLER_1_164
*818 FILLER_1_178
*819 FILLER_1_186
*820 FILLER_1_194
*821 FILLER_1_205
*822 FILLER_1_216
*823 FILLER_1_230
*824 FILLER_1_242
*825 FILLER_1_254
*826 FILLER_1_266
*827 FILLER_1_278
*828 FILLER_1_281
*829 FILLER_1_293
*830 FILLER_1_3
*831 FILLER_1_36
*832 FILLER_1_48
*833 FILLER_1_57
*834 FILLER_1_85
*835 FILLER_20_109
*836 FILLER_20_126
*837 FILLER_20_138
*838 FILLER_20_141
*839 FILLER_20_149
*840 FILLER_20_158
*841 FILLER_20_166
*842 FILLER_20_174
*843 FILLER_20_186
*844 FILLER_20_19
*845 FILLER_20_194
*846 FILLER_20_197
*847 FILLER_20_208
*848 FILLER_20_227
*849 FILLER_20_241
*850 FILLER_20_249
*851 FILLER_20_253
*852 FILLER_20_265
*853 FILLER_20_27
*854 FILLER_20_277
*855 FILLER_20_289
*856 FILLER_20_29
*857 FILLER_20_297
*858 FILLER_20_35
*859 FILLER_20_38
*860 FILLER_20_56
*861 FILLER_20_76
*862 FILLER_20_80
*863 FILLER_20_85
*864 FILLER_20_97
*865 FILLER_21_100
*866 FILLER_21_113
*867 FILLER_21_125
*868 FILLER_21_139
*869 FILLER_21_15
*870 FILLER_21_152
*871 FILLER_21_156
*872 FILLER_21_163
*873 FILLER_21_167
*874 FILLER_21_169
*875 FILLER_21_175
*876 FILLER_21_184
*877 FILLER_21_194
*878 FILLER_21_204
*879 FILLER_21_208
*880 FILLER_21_217
*881 FILLER_21_223
*882 FILLER_21_225
*883 FILLER_21_237
*884 FILLER_21_249
*885 FILLER_21_261
*886 FILLER_21_27
*887 FILLER_21_273
*888 FILLER_21_279
*889 FILLER_21_281
*890 FILLER_21_293
*891 FILLER_21_3
*892 FILLER_21_51
*893 FILLER_21_55
*894 FILLER_21_57
*895 FILLER_21_67
*896 FILLER_21_76
*897 FILLER_21_88
*898 FILLER_22_103
*899 FILLER_22_114
*900 FILLER_22_123
*901 FILLER_22_135
*902 FILLER_22_139
*903 FILLER_22_146
*904 FILLER_22_15
*905 FILLER_22_154
*906 FILLER_22_166
*907 FILLER_22_178
*908 FILLER_22_185
*909 FILLER_22_193
*910 FILLER_22_203
*911 FILLER_22_220
*912 FILLER_22_232
*913 FILLER_22_244
*914 FILLER_22_253
*915 FILLER_22_265
*916 FILLER_22_27
*917 FILLER_22_277
*918 FILLER_22_289
*919 FILLER_22_29
*920 FILLER_22_297
*921 FILLER_22_3
*922 FILLER_22_41
*923 FILLER_22_53
*924 FILLER_22_65
*925 FILLER_22_69
*926 FILLER_22_76
*927 FILLER_22_91
*928 FILLER_23_103
*929 FILLER_23_111
*930 FILLER_23_113
*931 FILLER_23_126
*932 FILLER_23_136
*933 FILLER_23_144
*934 FILLER_23_15
*935 FILLER_23_151
*936 FILLER_23_155
*937 FILLER_23_160
*938 FILLER_23_175
*939 FILLER_23_187
*940 FILLER_23_209
*941 FILLER_23_21
*942 FILLER_23_221
*943 FILLER_23_225
*944 FILLER_23_237
*945 FILLER_23_249
*946 FILLER_23_261
*947 FILLER_23_27
*948 FILLER_23_273
*949 FILLER_23_279
*950 FILLER_23_281
*951 FILLER_23_293
*952 FILLER_23_3
*953 FILLER_23_38
*954 FILLER_23_46
*955 FILLER_23_52
*956 FILLER_23_57
*957 FILLER_23_73
*958 FILLER_23_81
*959 FILLER_23_93
*960 FILLER_24_105
*961 FILLER_24_113
*962 FILLER_24_118
*963 FILLER_24_122
*964 FILLER_24_126
*965 FILLER_24_135
*966 FILLER_24_139
*967 FILLER_24_141
*968 FILLER_24_15
*969 FILLER_24_151
*970 FILLER_24_163
*971 FILLER_24_170
*972 FILLER_24_174
*973 FILLER_24_178
*974 FILLER_24_192
*975 FILLER_24_197
*976 FILLER_24_209
*977 FILLER_24_221
*978 FILLER_24_233
*979 FILLER_24_24
*980 FILLER_24_245
*981 FILLER_24_251
*982 FILLER_24_253
*983 FILLER_24_265
*984 FILLER_24_277
*985 FILLER_24_289
*986 FILLER_24_297
*987 FILLER_24_3
*988 FILLER_24_35
*989 FILLER_24_47
*990 FILLER_24_53
*991 FILLER_24_59
*992 FILLER_24_69
*993 FILLER_24_80
*994 FILLER_24_85
*995 FILLER_24_97
*996 FILLER_25_11
*997 FILLER_25_111
*998 FILLER_25_119
*999 FILLER_25_126
*1000 FILLER_25_130
*1001 FILLER_25_135
*1002 FILLER_25_139
*1003 FILLER_25_150
*1004 FILLER_25_162
*1005 FILLER_25_172
*1006 FILLER_25_187
*1007 FILLER_25_19
*1008 FILLER_25_195
*1009 FILLER_25_201
*1010 FILLER_25_220
*1011 FILLER_25_225
*1012 FILLER_25_237
*1013 FILLER_25_249
*1014 FILLER_25_261
*1015 FILLER_25_273
*1016 FILLER_25_279
*1017 FILLER_25_281
*1018 FILLER_25_293
*1019 FILLER_25_3
*1020 FILLER_25_31
*1021 FILLER_25_50
*1022 FILLER_25_64
*1023 FILLER_25_72
*1024 FILLER_25_79
*1025 FILLER_25_85
*1026 FILLER_25_91
*1027 FILLER_25_99
*1028 FILLER_26_108
*1029 FILLER_26_119
*1030 FILLER_26_125
*1031 FILLER_26_134
*1032 FILLER_26_141
*1033 FILLER_26_145
*1034 FILLER_26_15
*1035 FILLER_26_155
*1036 FILLER_26_162
*1037 FILLER_26_174
*1038 FILLER_26_186
*1039 FILLER_26_194
*1040 FILLER_26_201
*1041 FILLER_26_205
*1042 FILLER_26_216
*1043 FILLER_26_228
*1044 FILLER_26_240
*1045 FILLER_26_253
*1046 FILLER_26_265
*1047 FILLER_26_27
*1048 FILLER_26_277
*1049 FILLER_26_289
*1050 FILLER_26_297
*1051 FILLER_26_3
*1052 FILLER_26_37
*1053 FILLER_26_44
*1054 FILLER_26_55
*1055 FILLER_26_64
*1056 FILLER_26_74
*1057 FILLER_26_82
*1058 FILLER_26_90
*1059 FILLER_27_102
*1060 FILLER_27_110
*1061 FILLER_27_113
*1062 FILLER_27_123
*1063 FILLER_27_133
*1064 FILLER_27_145
*1065 FILLER_27_149
*1066 FILLER_27_164
*1067 FILLER_27_174
*1068 FILLER_27_201
*1069 FILLER_27_21
*1070 FILLER_27_212
*1071 FILLER_27_225
*1072 FILLER_27_237
*1073 FILLER_27_249
*1074 FILLER_27_25
*1075 FILLER_27_261
*1076 FILLER_27_273
*1077 FILLER_27_279
*1078 FILLER_27_281
*1079 FILLER_27_293
*1080 FILLER_27_3
*1081 FILLER_27_33
*1082 FILLER_27_41
*1083 FILLER_27_47
*1084 FILLER_27_52
*1085 FILLER_27_57
*1086 FILLER_27_63
*1087 FILLER_27_69
*1088 FILLER_27_76
*1089 FILLER_27_88
*1090 FILLER_27_9
*1091 FILLER_27_93
*1092 FILLER_28_105
*1093 FILLER_28_112
*1094 FILLER_28_124
*1095 FILLER_28_136
*1096 FILLER_28_141
*1097 FILLER_28_151
*1098 FILLER_28_158
*1099 FILLER_28_166
*1100 FILLER_28_175
*1101 FILLER_28_187
*1102 FILLER_28_19
*1103 FILLER_28_195
*1104 FILLER_28_197
*1105 FILLER_28_209
*1106 FILLER_28_221
*1107 FILLER_28_233
*1108 FILLER_28_245
*1109 FILLER_28_251
*1110 FILLER_28_253
*1111 FILLER_28_265
*1112 FILLER_28_27
*1113 FILLER_28_277
*1114 FILLER_28_289
*1115 FILLER_28_29
*1116 FILLER_28_297
*1117 FILLER_28_3
*1118 FILLER_28_37
*1119 FILLER_28_42
*1120 FILLER_28_50
*1121 FILLER_28_58
*1122 FILLER_28_69
*1123 FILLER_28_81
*1124 FILLER_28_85
*1125 FILLER_28_97
*1126 FILLER_29_104
*1127 FILLER_29_108
*1128 FILLER_29_122
*1129 FILLER_29_129
*1130 FILLER_29_138
*1131 FILLER_29_146
*1132 FILLER_29_15
*1133 FILLER_29_158
*1134 FILLER_29_166
*1135 FILLER_29_169
*1136 FILLER_29_176
*1137 FILLER_29_188
*1138 FILLER_29_200
*1139 FILLER_29_21
*1140 FILLER_29_212
*1141 FILLER_29_225
*1142 FILLER_29_237
*1143 FILLER_29_249
*1144 FILLER_29_261
*1145 FILLER_29_27
*1146 FILLER_29_273
*1147 FILLER_29_279
*1148 FILLER_29_281
*1149 FILLER_29_293
*1150 FILLER_29_3
*1151 FILLER_29_35
*1152 FILLER_29_43
*1153 FILLER_29_49
*1154 FILLER_29_55
*1155 FILLER_29_62
*1156 FILLER_29_74
*1157 FILLER_29_84
*1158 FILLER_29_92
*1159 FILLER_2_102
*1160 FILLER_2_122
*1161 FILLER_2_136
*1162 FILLER_2_141
*1163 FILLER_2_148
*1164 FILLER_2_160
*1165 FILLER_2_174
*1166 FILLER_2_181
*1167 FILLER_2_19
*1168 FILLER_2_193
*1169 FILLER_2_200
*1170 FILLER_2_208
*1171 FILLER_2_230
*1172 FILLER_2_242
*1173 FILLER_2_250
*1174 FILLER_2_253
*1175 FILLER_2_265
*1176 FILLER_2_27
*1177 FILLER_2_277
*1178 FILLER_2_289
*1179 FILLER_2_29
*1180 FILLER_2_297
*1181 FILLER_2_49
*1182 FILLER_2_70
*1183 FILLER_2_80
*1184 FILLER_2_85
*1185 FILLER_30_104
*1186 FILLER_30_111
*1187 FILLER_30_129
*1188 FILLER_30_137
*1189 FILLER_30_148
*1190 FILLER_30_15
*1191 FILLER_30_157
*1192 FILLER_30_169
*1193 FILLER_30_181
*1194 FILLER_30_187
*1195 FILLER_30_19
*1196 FILLER_30_195
*1197 FILLER_30_197
*1198 FILLER_30_209
*1199 FILLER_30_221
*1200 FILLER_30_233
*1201 FILLER_30_24
*1202 FILLER_30_245
*1203 FILLER_30_251
*1204 FILLER_30_253
*1205 FILLER_30_265
*1206 FILLER_30_277
*1207 FILLER_30_289
*1208 FILLER_30_297
*1209 FILLER_30_3
*1210 FILLER_30_34
*1211 FILLER_30_38
*1212 FILLER_30_42
*1213 FILLER_30_51
*1214 FILLER_30_59
*1215 FILLER_30_69
*1216 FILLER_30_81
*1217 FILLER_30_88
*1218 FILLER_30_96
*1219 FILLER_31_106
*1220 FILLER_31_118
*1221 FILLER_31_126
*1222 FILLER_31_13
*1223 FILLER_31_133
*1224 FILLER_31_145
*1225 FILLER_31_151
*1226 FILLER_31_158
*1227 FILLER_31_166
*1228 FILLER_31_174
*1229 FILLER_31_186
*1230 FILLER_31_198
*1231 FILLER_31_210
*1232 FILLER_31_222
*1233 FILLER_31_225
*1234 FILLER_31_237
*1235 FILLER_31_24
*1236 FILLER_31_249
*1237 FILLER_31_261
*1238 FILLER_31_273
*1239 FILLER_31_279
*1240 FILLER_31_281
*1241 FILLER_31_293
*1242 FILLER_31_3
*1243 FILLER_31_37
*1244 FILLER_31_41
*1245 FILLER_31_52
*1246 FILLER_31_57
*1247 FILLER_31_66
*1248 FILLER_31_70
*1249 FILLER_31_83
*1250 FILLER_31_9
*1251 FILLER_31_95
*1252 FILLER_32_105
*1253 FILLER_32_117
*1254 FILLER_32_131
*1255 FILLER_32_139
*1256 FILLER_32_141
*1257 FILLER_32_153
*1258 FILLER_32_16
*1259 FILLER_32_165
*1260 FILLER_32_177
*1261 FILLER_32_189
*1262 FILLER_32_195
*1263 FILLER_32_197
*1264 FILLER_32_209
*1265 FILLER_32_221
*1266 FILLER_32_233
*1267 FILLER_32_245
*1268 FILLER_32_251
*1269 FILLER_32_253
*1270 FILLER_32_265
*1271 FILLER_32_277
*1272 FILLER_32_289
*1273 FILLER_32_297
*1274 FILLER_32_3
*1275 FILLER_32_39
*1276 FILLER_32_48
*1277 FILLER_32_56
*1278 FILLER_32_67
*1279 FILLER_32_74
*1280 FILLER_32_82
*1281 FILLER_32_85
*1282 FILLER_32_91
*1283 FILLER_32_98
*1284 FILLER_33_103
*1285 FILLER_33_111
*1286 FILLER_33_113
*1287 FILLER_33_121
*1288 FILLER_33_129
*1289 FILLER_33_141
*1290 FILLER_33_15
*1291 FILLER_33_153
*1292 FILLER_33_165
*1293 FILLER_33_169
*1294 FILLER_33_181
*1295 FILLER_33_193
*1296 FILLER_33_205
*1297 FILLER_33_217
*1298 FILLER_33_223
*1299 FILLER_33_225
*1300 FILLER_33_237
*1301 FILLER_33_249
*1302 FILLER_33_25
*1303 FILLER_33_261
*1304 FILLER_33_273
*1305 FILLER_33_279
*1306 FILLER_33_281
*1307 FILLER_33_293
*1308 FILLER_33_3
*1309 FILLER_33_33
*1310 FILLER_33_38
*1311 FILLER_33_47
*1312 FILLER_33_55
*1313 FILLER_33_63
*1314 FILLER_33_70
*1315 FILLER_33_81
*1316 FILLER_34_102
*1317 FILLER_34_114
*1318 FILLER_34_127
*1319 FILLER_34_139
*1320 FILLER_34_141
*1321 FILLER_34_153
*1322 FILLER_34_165
*1323 FILLER_34_17
*1324 FILLER_34_177
*1325 FILLER_34_189
*1326 FILLER_34_195
*1327 FILLER_34_197
*1328 FILLER_34_209
*1329 FILLER_34_221
*1330 FILLER_34_233
*1331 FILLER_34_24
*1332 FILLER_34_245
*1333 FILLER_34_251
*1334 FILLER_34_253
*1335 FILLER_34_265
*1336 FILLER_34_277
*1337 FILLER_34_289
*1338 FILLER_34_29
*1339 FILLER_34_297
*1340 FILLER_34_3
*1341 FILLER_34_37
*1342 FILLER_34_41
*1343 FILLER_34_50
*1344 FILLER_34_62
*1345 FILLER_34_71
*1346 FILLER_34_83
*1347 FILLER_34_93
*1348 FILLER_35_106
*1349 FILLER_35_116
*1350 FILLER_35_128
*1351 FILLER_35_13
*1352 FILLER_35_140
*1353 FILLER_35_152
*1354 FILLER_35_164
*1355 FILLER_35_169
*1356 FILLER_35_181
*1357 FILLER_35_19
*1358 FILLER_35_193
*1359 FILLER_35_205
*1360 FILLER_35_217
*1361 FILLER_35_223
*1362 FILLER_35_225
*1363 FILLER_35_237
*1364 FILLER_35_249
*1365 FILLER_35_261
*1366 FILLER_35_27
*1367 FILLER_35_273
*1368 FILLER_35_279
*1369 FILLER_35_281
*1370 FILLER_35_293
*1371 FILLER_35_3
*1372 FILLER_35_31
*1373 FILLER_35_42
*1374 FILLER_35_50
*1375 FILLER_35_62
*1376 FILLER_35_75
*1377 FILLER_35_97
*1378 FILLER_36_101
*1379 FILLER_36_108
*1380 FILLER_36_120
*1381 FILLER_36_132
*1382 FILLER_36_141
*1383 FILLER_36_15
*1384 FILLER_36_153
*1385 FILLER_36_165
*1386 FILLER_36_177
*1387 FILLER_36_189
*1388 FILLER_36_195
*1389 FILLER_36_197
*1390 FILLER_36_209
*1391 FILLER_36_221
*1392 FILLER_36_233
*1393 FILLER_36_245
*1394 FILLER_36_251
*1395 FILLER_36_253
*1396 FILLER_36_265
*1397 FILLER_36_27
*1398 FILLER_36_277
*1399 FILLER_36_289
*1400 FILLER_36_297
*1401 FILLER_36_3
*1402 FILLER_36_39
*1403 FILLER_36_47
*1404 FILLER_36_51
*1405 FILLER_36_58
*1406 FILLER_36_66
*1407 FILLER_36_71
*1408 FILLER_36_83
*1409 FILLER_36_92
*1410 FILLER_37_111
*1411 FILLER_37_113
*1412 FILLER_37_125
*1413 FILLER_37_137
*1414 FILLER_37_149
*1415 FILLER_37_15
*1416 FILLER_37_161
*1417 FILLER_37_167
*1418 FILLER_37_169
*1419 FILLER_37_181
*1420 FILLER_37_193
*1421 FILLER_37_205
*1422 FILLER_37_21
*1423 FILLER_37_217
*1424 FILLER_37_223
*1425 FILLER_37_225
*1426 FILLER_37_237
*1427 FILLER_37_249
*1428 FILLER_37_261
*1429 FILLER_37_273
*1430 FILLER_37_279
*1431 FILLER_37_281
*1432 FILLER_37_293
*1433 FILLER_37_3
*1434 FILLER_37_34
*1435 FILLER_37_46
*1436 FILLER_37_54
*1437 FILLER_37_63
*1438 FILLER_37_69
*1439 FILLER_37_78
*1440 FILLER_37_87
*1441 FILLER_37_99
*1442 FILLER_38_106
*1443 FILLER_38_118
*1444 FILLER_38_130
*1445 FILLER_38_138
*1446 FILLER_38_141
*1447 FILLER_38_15
*1448 FILLER_38_153
*1449 FILLER_38_165
*1450 FILLER_38_177
*1451 FILLER_38_189
*1452 FILLER_38_195
*1453 FILLER_38_197
*1454 FILLER_38_209
*1455 FILLER_38_22
*1456 FILLER_38_221
*1457 FILLER_38_233
*1458 FILLER_38_245
*1459 FILLER_38_251
*1460 FILLER_38_253
*1461 FILLER_38_265
*1462 FILLER_38_277
*1463 FILLER_38_289
*1464 FILLER_38_29
*1465 FILLER_38_297
*1466 FILLER_38_3
*1467 FILLER_38_39
*1468 FILLER_38_45
*1469 FILLER_38_49
*1470 FILLER_38_61
*1471 FILLER_38_67
*1472 FILLER_38_74
*1473 FILLER_38_82
*1474 FILLER_38_85
*1475 FILLER_38_94
*1476 FILLER_39_101
*1477 FILLER_39_109
*1478 FILLER_39_113
*1479 FILLER_39_125
*1480 FILLER_39_137
*1481 FILLER_39_149
*1482 FILLER_39_161
*1483 FILLER_39_167
*1484 FILLER_39_169
*1485 FILLER_39_18
*1486 FILLER_39_181
*1487 FILLER_39_193
*1488 FILLER_39_205
*1489 FILLER_39_217
*1490 FILLER_39_223
*1491 FILLER_39_225
*1492 FILLER_39_237
*1493 FILLER_39_249
*1494 FILLER_39_261
*1495 FILLER_39_273
*1496 FILLER_39_279
*1497 FILLER_39_281
*1498 FILLER_39_293
*1499 FILLER_39_30
*1500 FILLER_39_42
*1501 FILLER_39_54
*1502 FILLER_39_57
*1503 FILLER_39_6
*1504 FILLER_39_69
*1505 FILLER_39_73
*1506 FILLER_39_79
*1507 FILLER_39_91
*1508 FILLER_39_95
*1509 FILLER_3_108
*1510 FILLER_3_129
*1511 FILLER_3_137
*1512 FILLER_3_149
*1513 FILLER_3_159
*1514 FILLER_3_167
*1515 FILLER_3_179
*1516 FILLER_3_190
*1517 FILLER_3_201
*1518 FILLER_3_212
*1519 FILLER_3_22
*1520 FILLER_3_225
*1521 FILLER_3_237
*1522 FILLER_3_249
*1523 FILLER_3_261
*1524 FILLER_3_273
*1525 FILLER_3_279
*1526 FILLER_3_281
*1527 FILLER_3_293
*1528 FILLER_3_3
*1529 FILLER_3_34
*1530 FILLER_3_52
*1531 FILLER_3_57
*1532 FILLER_3_69
*1533 FILLER_3_88
*1534 FILLER_40_109
*1535 FILLER_40_121
*1536 FILLER_40_133
*1537 FILLER_40_139
*1538 FILLER_40_141
*1539 FILLER_40_15
*1540 FILLER_40_153
*1541 FILLER_40_165
*1542 FILLER_40_177
*1543 FILLER_40_189
*1544 FILLER_40_195
*1545 FILLER_40_197
*1546 FILLER_40_209
*1547 FILLER_40_221
*1548 FILLER_40_233
*1549 FILLER_40_245
*1550 FILLER_40_251
*1551 FILLER_40_253
*1552 FILLER_40_265
*1553 FILLER_40_27
*1554 FILLER_40_277
*1555 FILLER_40_289
*1556 FILLER_40_297
*1557 FILLER_40_3
*1558 FILLER_40_32
*1559 FILLER_40_40
*1560 FILLER_40_44
*1561 FILLER_40_48
*1562 FILLER_40_60
*1563 FILLER_40_71
*1564 FILLER_40_83
*1565 FILLER_40_85
*1566 FILLER_40_97
*1567 FILLER_41_110
*1568 FILLER_41_113
*1569 FILLER_41_125
*1570 FILLER_41_137
*1571 FILLER_41_149
*1572 FILLER_41_15
*1573 FILLER_41_161
*1574 FILLER_41_167
*1575 FILLER_41_169
*1576 FILLER_41_181
*1577 FILLER_41_19
*1578 FILLER_41_193
*1579 FILLER_41_205
*1580 FILLER_41_217
*1581 FILLER_41_223
*1582 FILLER_41_225
*1583 FILLER_41_237
*1584 FILLER_41_249
*1585 FILLER_41_26
*1586 FILLER_41_261
*1587 FILLER_41_273
*1588 FILLER_41_279
*1589 FILLER_41_281
*1590 FILLER_41_293
*1591 FILLER_41_3
*1592 FILLER_41_38
*1593 FILLER_41_50
*1594 FILLER_41_62
*1595 FILLER_41_74
*1596 FILLER_41_86
*1597 FILLER_41_98
*1598 FILLER_42_109
*1599 FILLER_42_121
*1600 FILLER_42_133
*1601 FILLER_42_139
*1602 FILLER_42_141
*1603 FILLER_42_153
*1604 FILLER_42_165
*1605 FILLER_42_177
*1606 FILLER_42_18
*1607 FILLER_42_189
*1608 FILLER_42_195
*1609 FILLER_42_197
*1610 FILLER_42_209
*1611 FILLER_42_221
*1612 FILLER_42_233
*1613 FILLER_42_245
*1614 FILLER_42_251
*1615 FILLER_42_253
*1616 FILLER_42_26
*1617 FILLER_42_265
*1618 FILLER_42_277
*1619 FILLER_42_289
*1620 FILLER_42_29
*1621 FILLER_42_297
*1622 FILLER_42_41
*1623 FILLER_42_45
*1624 FILLER_42_49
*1625 FILLER_42_58
*1626 FILLER_42_6
*1627 FILLER_42_70
*1628 FILLER_42_82
*1629 FILLER_42_85
*1630 FILLER_42_97
*1631 FILLER_43_109
*1632 FILLER_43_113
*1633 FILLER_43_125
*1634 FILLER_43_137
*1635 FILLER_43_149
*1636 FILLER_43_15
*1637 FILLER_43_161
*1638 FILLER_43_167
*1639 FILLER_43_169
*1640 FILLER_43_181
*1641 FILLER_43_193
*1642 FILLER_43_205
*1643 FILLER_43_217
*1644 FILLER_43_223
*1645 FILLER_43_225
*1646 FILLER_43_23
*1647 FILLER_43_237
*1648 FILLER_43_249
*1649 FILLER_43_261
*1650 FILLER_43_273
*1651 FILLER_43_279
*1652 FILLER_43_281
*1653 FILLER_43_29
*1654 FILLER_43_293
*1655 FILLER_43_3
*1656 FILLER_43_42
*1657 FILLER_43_54
*1658 FILLER_43_61
*1659 FILLER_43_73
*1660 FILLER_43_85
*1661 FILLER_43_97
*1662 FILLER_44_109
*1663 FILLER_44_121
*1664 FILLER_44_133
*1665 FILLER_44_139
*1666 FILLER_44_141
*1667 FILLER_44_15
*1668 FILLER_44_153
*1669 FILLER_44_165
*1670 FILLER_44_177
*1671 FILLER_44_189
*1672 FILLER_44_195
*1673 FILLER_44_197
*1674 FILLER_44_209
*1675 FILLER_44_221
*1676 FILLER_44_233
*1677 FILLER_44_245
*1678 FILLER_44_251
*1679 FILLER_44_253
*1680 FILLER_44_265
*1681 FILLER_44_27
*1682 FILLER_44_277
*1683 FILLER_44_289
*1684 FILLER_44_29
*1685 FILLER_44_297
*1686 FILLER_44_3
*1687 FILLER_44_41
*1688 FILLER_44_53
*1689 FILLER_44_65
*1690 FILLER_44_77
*1691 FILLER_44_83
*1692 FILLER_44_85
*1693 FILLER_44_97
*1694 FILLER_45_105
*1695 FILLER_45_111
*1696 FILLER_45_113
*1697 FILLER_45_125
*1698 FILLER_45_137
*1699 FILLER_45_149
*1700 FILLER_45_15
*1701 FILLER_45_161
*1702 FILLER_45_167
*1703 FILLER_45_169
*1704 FILLER_45_181
*1705 FILLER_45_19
*1706 FILLER_45_193
*1707 FILLER_45_205
*1708 FILLER_45_217
*1709 FILLER_45_223
*1710 FILLER_45_225
*1711 FILLER_45_23
*1712 FILLER_45_237
*1713 FILLER_45_249
*1714 FILLER_45_261
*1715 FILLER_45_273
*1716 FILLER_45_279
*1717 FILLER_45_281
*1718 FILLER_45_293
*1719 FILLER_45_3
*1720 FILLER_45_35
*1721 FILLER_45_47
*1722 FILLER_45_55
*1723 FILLER_45_57
*1724 FILLER_45_69