*SPEF "ieee 1481-1999"
*DESIGN "cpldcpu_TrainLED2top"
*DATE "11:11:11 Fri 11 11, 1111"
*VENDOR "OpenRCX"
*PROGRAM "Parallel Extraction"
*VERSION "1.0"
*DESIGN_FLOW "NAME_SCOPE LOCAL" "PIN_CAP NONE"
*DIVIDER /
*DELIMITER :
*BUS_DELIMITER []
*T_UNIT 1 NS
*C_UNIT 1 PF
*R_UNIT 1 OHM
*L_UNIT 1 HENRY

*NAME_MAP
*1 io_in[0]
*2 io_in[1]
*3 io_in[2]
*4 io_in[3]
*5 io_in[4]
*6 io_in[5]
*7 io_in[6]
*8 io_in[7]
*9 io_out[0]
*10 io_out[1]
*11 io_out[2]
*12 io_out[3]
*13 net3
*14 net4
*15 net5
*16 net6
*19 TrainLED2_top1\.PWM1\.LEDdff
*20 TrainLED2_top1\.PWM1\.PW_in\[0\]
*21 TrainLED2_top1\.PWM1\.PW_in\[1\]
*22 TrainLED2_top1\.PWM1\.PW_in\[2\]
*23 TrainLED2_top1\.PWM1\.PW_in\[3\]
*24 TrainLED2_top1\.PWM1\.PW_in\[4\]
*25 TrainLED2_top1\.PWM1\.PW_in\[5\]
*26 TrainLED2_top1\.PWM1\.PW_in\[6\]
*27 TrainLED2_top1\.PWM1\.PW_in\[7\]
*28 TrainLED2_top1\.PWM1\.counter\[0\]
*29 TrainLED2_top1\.PWM1\.counter\[1\]
*30 TrainLED2_top1\.PWM1\.counter\[2\]
*31 TrainLED2_top1\.PWM1\.counter\[3\]
*32 TrainLED2_top1\.PWM1\.datalatch\[0\]
*33 TrainLED2_top1\.PWM1\.datalatch\[1\]
*34 TrainLED2_top1\.PWM1\.datalatch\[2\]
*35 TrainLED2_top1\.PWM1\.datalatch\[3\]
*36 TrainLED2_top1\.PWM1\.datalatch\[4\]
*37 TrainLED2_top1\.PWM1\.datalatch\[5\]
*38 TrainLED2_top1\.PWM1\.datalatch\[6\]
*39 TrainLED2_top1\.PWM1\.datalatch\[7\]
*40 TrainLED2_top1\.PWM1\.modulator\[0\]
*41 TrainLED2_top1\.PWM1\.modulator\[1\]
*42 TrainLED2_top1\.PWM1\.modulator\[2\]
*43 TrainLED2_top1\.PWM1\.modulator\[3\]
*44 TrainLED2_top1\.PWM2\.LEDdff
*45 TrainLED2_top1\.PWM2\.PW_in\[0\]
*46 TrainLED2_top1\.PWM2\.PW_in\[1\]
*47 TrainLED2_top1\.PWM2\.PW_in\[2\]
*48 TrainLED2_top1\.PWM2\.PW_in\[3\]
*49 TrainLED2_top1\.PWM2\.PW_in\[4\]
*50 TrainLED2_top1\.PWM2\.PW_in\[5\]
*51 TrainLED2_top1\.PWM2\.PW_in\[6\]
*52 TrainLED2_top1\.PWM2\.PW_in\[7\]
*53 TrainLED2_top1\.PWM2\.datalatch\[0\]
*54 TrainLED2_top1\.PWM2\.datalatch\[1\]
*55 TrainLED2_top1\.PWM2\.datalatch\[2\]
*56 TrainLED2_top1\.PWM2\.datalatch\[3\]
*57 TrainLED2_top1\.PWM2\.datalatch\[4\]
*58 TrainLED2_top1\.PWM2\.datalatch\[5\]
*59 TrainLED2_top1\.PWM2\.datalatch\[6\]
*60 TrainLED2_top1\.PWM2\.datalatch\[7\]
*61 TrainLED2_top1\.PWM2\.modulator\[0\]
*62 TrainLED2_top1\.PWM2\.modulator\[1\]
*63 TrainLED2_top1\.PWM2\.modulator\[2\]
*64 TrainLED2_top1\.PWM2\.modulator\[3\]
*65 TrainLED2_top1\.PWM3\.LEDdff
*66 TrainLED2_top1\.PWM3\.PW_in\[0\]
*67 TrainLED2_top1\.PWM3\.PW_in\[1\]
*68 TrainLED2_top1\.PWM3\.PW_in\[2\]
*69 TrainLED2_top1\.PWM3\.PW_in\[3\]
*70 TrainLED2_top1\.PWM3\.PW_in\[4\]
*71 TrainLED2_top1\.PWM3\.PW_in\[5\]
*72 TrainLED2_top1\.PWM3\.PW_in\[6\]
*73 TrainLED2_top1\.PWM3\.PW_in\[7\]
*74 TrainLED2_top1\.PWM3\.datalatch\[0\]
*75 TrainLED2_top1\.PWM3\.datalatch\[1\]
*76 TrainLED2_top1\.PWM3\.datalatch\[2\]
*77 TrainLED2_top1\.PWM3\.datalatch\[3\]
*78 TrainLED2_top1\.PWM3\.datalatch\[4\]
*79 TrainLED2_top1\.PWM3\.datalatch\[5\]
*80 TrainLED2_top1\.PWM3\.datalatch\[6\]
*81 TrainLED2_top1\.PWM3\.datalatch\[7\]
*82 TrainLED2_top1\.PWM3\.modulator\[0\]
*83 TrainLED2_top1\.PWM3\.modulator\[1\]
*84 TrainLED2_top1\.PWM3\.modulator\[2\]
*85 TrainLED2_top1\.PWM3\.modulator\[3\]
*86 TrainLED2_top1\.bitcount\[0\]
*87 TrainLED2_top1\.bitcount\[1\]
*88 TrainLED2_top1\.bitcount\[2\]
*89 TrainLED2_top1\.bitcount\[3\]
*90 TrainLED2_top1\.bitcount\[4\]
*91 TrainLED2_top1\.dout
*92 TrainLED2_top1\.finecount\[0\]
*93 TrainLED2_top1\.finecount\[1\]
*94 TrainLED2_top1\.finecount\[2\]
*95 TrainLED2_top1\.finecount\[3\]
*96 TrainLED2_top1\.mode\[0\]
*97 TrainLED2_top1\.mode\[1\]
*98 TrainLED2_top1\.resetcount\[0\]
*99 TrainLED2_top1\.resetcount\[1\]
*100 TrainLED2_top1\.resetcount\[2\]
*101 TrainLED2_top1\.resetcount\[3\]
*102 TrainLED2_top1\.resetcount\[4\]
*103 TrainLED2_top1\.resetcount\[5\]
*104 TrainLED2_top1\.resetcount\[6\]
*105 TrainLED2_top1\.resetcount\[7\]
*106 _000_
*107 _001_
*108 _002_
*109 _003_
*110 _004_
*111 _005_
*112 _006_
*113 _007_
*114 _008_
*115 _009_
*116 _010_
*117 _011_
*118 _012_
*119 _013_
*120 _014_
*121 _015_
*122 _016_
*123 _017_
*124 _018_
*125 _019_
*126 _020_
*127 _021_
*128 _022_
*129 _023_
*130 _024_
*131 _025_
*132 _026_
*133 _027_
*134 _028_
*135 _029_
*136 _030_
*137 _031_
*138 _032_
*139 _033_
*140 _034_
*141 _035_
*142 _036_
*143 _037_
*144 _038_
*145 _039_
*146 _040_
*147 _041_
*148 _042_
*149 _043_
*150 _044_
*151 _045_
*152 _046_
*153 _047_
*154 _048_
*155 _049_
*156 _050_
*157 _051_
*158 _052_
*159 _053_
*160 _054_
*161 _055_
*162 _056_
*163 _057_
*164 _058_
*165 _059_
*166 _060_
*167 _061_
*168 _062_
*169 _063_
*170 _064_
*171 _065_
*172 _066_
*173 _067_
*174 _068_
*175 _069_
*176 _070_
*177 _071_
*178 _072_
*179 _073_
*180 _074_
*181 _075_
*182 _076_
*183 _077_
*184 _078_
*185 _079_
*186 _080_
*187 _081_
*188 _082_
*189 _083_
*190 _084_
*191 _085_
*192 _086_
*193 _087_
*194 _088_
*195 _089_
*196 _090_
*197 _091_
*198 _092_
*199 _093_
*200 _094_
*201 _095_
*202 _096_
*203 _097_
*204 _098_
*205 _099_
*206 _100_
*207 _101_
*208 _102_
*209 _103_
*210 _104_
*211 _105_
*212 _106_
*213 _107_
*214 _108_
*215 _109_
*216 _110_
*217 _111_
*218 _112_
*219 _113_
*220 _114_
*221 _115_
*222 _116_
*223 _117_
*224 _118_
*225 _119_
*226 _120_
*227 _121_
*228 _122_
*229 _123_
*230 _124_
*231 _125_
*232 _126_
*233 _127_
*234 _128_
*235 _129_
*236 _130_
*237 _131_
*238 _132_
*239 _133_
*240 _134_
*241 _135_
*242 _136_
*243 _137_
*244 _138_
*245 _139_
*246 _140_
*247 _141_
*248 _142_
*249 _143_
*250 _144_
*251 _145_
*252 _146_
*253 _147_
*254 _148_
*255 _149_
*256 _150_
*257 _151_
*258 _152_
*259 _153_
*260 _154_
*261 _155_
*262 _156_
*263 _157_
*264 _158_
*265 _159_
*266 _160_
*267 _161_
*268 _162_
*269 _163_
*270 _164_
*271 _165_
*272 _166_
*273 _167_
*274 _168_
*275 _169_
*276 _170_
*277 _171_
*278 _172_
*279 _173_
*280 _174_
*281 _175_
*282 _176_
*283 _177_
*284 _178_
*285 _179_
*286 _180_
*287 _181_
*288 _182_
*289 _183_
*290 _184_
*291 _185_
*292 _186_
*293 _187_
*294 _188_
*295 _189_
*296 _190_
*297 _191_
*298 _192_
*299 _193_
*300 _194_
*301 _195_
*302 _196_
*303 _197_
*304 _198_
*305 _199_
*306 _200_
*307 _201_
*308 _202_
*309 _203_
*310 _204_
*311 _205_
*312 _206_
*313 _207_
*314 _208_
*315 _209_
*316 _210_
*317 _211_
*318 _212_
*319 _213_
*320 _214_
*321 _215_
*322 _216_
*323 _217_
*324 _218_
*325 _219_
*326 _220_
*327 _221_
*328 _222_
*329 _223_
*330 _224_
*331 _225_
*332 _226_
*333 _227_
*334 _228_
*335 _229_
*336 _230_
*337 _231_
*338 _232_
*339 _233_
*340 _234_
*341 _235_
*342 _236_
*343 _237_
*344 _238_
*345 _239_
*346 _240_
*347 _241_
*348 _242_
*349 _243_
*350 _244_
*351 _245_
*352 _246_
*353 _247_
*354 _248_
*355 _249_
*356 _250_
*357 _251_
*358 _252_
*359 _253_
*360 _254_
*361 _255_
*362 _256_
*363 _257_
*364 _258_
*365 _259_
*366 _260_
*367 _261_
*368 _262_
*369 _263_
*370 _264_
*371 _265_
*372 _266_
*373 _267_
*374 _268_
*375 _269_
*376 _270_
*377 _271_
*378 _272_
*379 _273_
*380 _274_
*381 _275_
*382 _276_
*383 _277_
*384 _278_
*385 _279_
*386 _280_
*387 _281_
*388 _282_
*389 _283_
*390 _284_
*391 _285_
*392 _286_
*393 _287_
*394 _288_
*395 _289_
*396 _290_
*397 _291_
*398 _292_
*399 _293_
*400 _294_
*401 _295_
*402 _296_
*403 _297_
*404 _298_
*405 _299_
*406 _300_
*407 _301_
*408 _302_
*409 _303_
*410 _304_
*411 _305_
*412 _306_
*413 _307_
*414 _308_
*415 _309_
*416 _310_
*417 _311_
*418 _312_
*419 _313_
*420 _314_
*421 _315_
*422 _316_
*423 _317_
*424 _318_
*425 _319_
*426 _320_
*427 _321_
*428 _322_
*429 _323_
*430 _324_
*431 _325_
*432 _326_
*433 _327_
*434 _328_
*435 _329_
*436 _330_
*437 _331_
*438 _332_
*439 _333_
*440 _334_
*441 clknet_0_io_in[0]
*442 clknet_3_0__leaf_io_in[0]
*443 clknet_3_1__leaf_io_in[0]
*444 clknet_3_2__leaf_io_in[0]
*445 clknet_3_3__leaf_io_in[0]
*446 clknet_3_4__leaf_io_in[0]
*447 clknet_3_5__leaf_io_in[0]
*448 clknet_3_6__leaf_io_in[0]
*449 clknet_3_7__leaf_io_in[0]
*450 net1
*451 net2
*452 ANTENNA_0
*453 ANTENNA_1
*454 ANTENNA_10
*455 ANTENNA_11
*456 ANTENNA_2
*457 ANTENNA_3
*458 ANTENNA_4
*459 ANTENNA_5
*460 ANTENNA_6
*461 ANTENNA_7
*462 ANTENNA_8
*463 ANTENNA_9
*464 FILLER_0_101
*465 FILLER_0_105
*466 FILLER_0_111
*467 FILLER_0_129
*468 FILLER_0_137
*469 FILLER_0_141
*470 FILLER_0_153
*471 FILLER_0_165
*472 FILLER_0_169
*473 FILLER_0_181
*474 FILLER_0_193
*475 FILLER_0_197
*476 FILLER_0_210
*477 FILLER_0_222
*478 FILLER_0_225
*479 FILLER_0_237
*480 FILLER_0_24
*481 FILLER_0_243
*482 FILLER_0_251
*483 FILLER_0_253
*484 FILLER_0_265
*485 FILLER_0_277
*486 FILLER_0_281
*487 FILLER_0_29
*488 FILLER_0_293
*489 FILLER_0_3
*490 FILLER_0_34
*491 FILLER_0_52
*492 FILLER_0_57
*493 FILLER_0_63
*494 FILLER_0_7
*495 FILLER_0_80
*496 FILLER_10_116
*497 FILLER_10_128
*498 FILLER_10_141
*499 FILLER_10_153
*500 FILLER_10_165
*501 FILLER_10_177
*502 FILLER_10_190
*503 FILLER_10_197
*504 FILLER_10_20
*505 FILLER_10_209
*506 FILLER_10_221
*507 FILLER_10_233
*508 FILLER_10_245
*509 FILLER_10_251
*510 FILLER_10_253
*511 FILLER_10_265
*512 FILLER_10_277
*513 FILLER_10_289
*514 FILLER_10_29
*515 FILLER_10_297
*516 FILLER_10_41
*517 FILLER_10_45
*518 FILLER_10_63
*519 FILLER_10_75
*520 FILLER_10_83
*521 FILLER_10_85
*522 FILLER_10_93
*523 FILLER_10_98
*524 FILLER_11_105
*525 FILLER_11_111
*526 FILLER_11_129
*527 FILLER_11_141
*528 FILLER_11_15
*529 FILLER_11_153
*530 FILLER_11_165
*531 FILLER_11_169
*532 FILLER_11_181
*533 FILLER_11_193
*534 FILLER_11_205
*535 FILLER_11_217
*536 FILLER_11_223
*537 FILLER_11_225
*538 FILLER_11_237
*539 FILLER_11_249
*540 FILLER_11_261
*541 FILLER_11_273
*542 FILLER_11_279
*543 FILLER_11_281
*544 FILLER_11_293
*545 FILLER_11_3
*546 FILLER_11_36
*547 FILLER_11_48
*548 FILLER_11_57
*549 FILLER_11_69
*550 FILLER_11_93
*551 FILLER_12_116
*552 FILLER_12_128
*553 FILLER_12_141
*554 FILLER_12_153
*555 FILLER_12_165
*556 FILLER_12_177
*557 FILLER_12_189
*558 FILLER_12_195
*559 FILLER_12_197
*560 FILLER_12_209
*561 FILLER_12_221
*562 FILLER_12_233
*563 FILLER_12_24
*564 FILLER_12_245
*565 FILLER_12_251
*566 FILLER_12_253
*567 FILLER_12_265
*568 FILLER_12_277
*569 FILLER_12_289
*570 FILLER_12_297
*571 FILLER_12_3
*572 FILLER_12_46
*573 FILLER_12_58
*574 FILLER_12_7
*575 FILLER_12_80
*576 FILLER_12_85
*577 FILLER_12_97
*578 FILLER_13_106
*579 FILLER_13_113
*580 FILLER_13_125
*581 FILLER_13_137
*582 FILLER_13_149
*583 FILLER_13_15
*584 FILLER_13_161
*585 FILLER_13_167
*586 FILLER_13_169
*587 FILLER_13_181
*588 FILLER_13_189
*589 FILLER_13_195
*590 FILLER_13_208
*591 FILLER_13_220
*592 FILLER_13_225
*593 FILLER_13_237
*594 FILLER_13_249
*595 FILLER_13_261
*596 FILLER_13_273
*597 FILLER_13_279
*598 FILLER_13_281
*599 FILLER_13_293
*600 FILLER_13_3
*601 FILLER_13_32
*602 FILLER_13_52
*603 FILLER_13_73
*604 FILLER_13_77
*605 FILLER_13_94
*606 FILLER_14_113
*607 FILLER_14_133
*608 FILLER_14_139
*609 FILLER_14_141
*610 FILLER_14_153
*611 FILLER_14_165
*612 FILLER_14_177
*613 FILLER_14_189
*614 FILLER_14_19
*615 FILLER_14_195
*616 FILLER_14_197
*617 FILLER_14_209
*618 FILLER_14_213
*619 FILLER_14_221
*620 FILLER_14_233
*621 FILLER_14_245
*622 FILLER_14_251
*623 FILLER_14_253
*624 FILLER_14_261
*625 FILLER_14_27
*626 FILLER_14_273
*627 FILLER_14_285
*628 FILLER_14_29
*629 FILLER_14_297
*630 FILLER_14_35
*631 FILLER_14_52
*632 FILLER_14_60
*633 FILLER_14_77
*634 FILLER_14_83
*635 FILLER_14_85
*636 FILLER_14_93
*637 FILLER_15_108
*638 FILLER_15_113
*639 FILLER_15_125
*640 FILLER_15_137
*641 FILLER_15_149
*642 FILLER_15_15
*643 FILLER_15_161
*644 FILLER_15_167
*645 FILLER_15_169
*646 FILLER_15_181
*647 FILLER_15_193
*648 FILLER_15_201
*649 FILLER_15_212
*650 FILLER_15_225
*651 FILLER_15_237
*652 FILLER_15_249
*653 FILLER_15_261
*654 FILLER_15_273
*655 FILLER_15_279
*656 FILLER_15_281
*657 FILLER_15_289
*658 FILLER_15_295
*659 FILLER_15_3
*660 FILLER_15_34
*661 FILLER_15_46
*662 FILLER_15_54
*663 FILLER_15_57
*664 FILLER_15_69
*665 FILLER_15_87
*666 FILLER_15_91
*667 FILLER_16_117
*668 FILLER_16_129
*669 FILLER_16_137
*670 FILLER_16_141
*671 FILLER_16_153
*672 FILLER_16_165
*673 FILLER_16_177
*674 FILLER_16_189
*675 FILLER_16_195
*676 FILLER_16_197
*677 FILLER_16_201
*678 FILLER_16_211
*679 FILLER_16_223
*680 FILLER_16_235
*681 FILLER_16_24
*682 FILLER_16_247
*683 FILLER_16_251
*684 FILLER_16_253
*685 FILLER_16_265
*686 FILLER_16_277
*687 FILLER_16_289
*688 FILLER_16_29
*689 FILLER_16_297
*690 FILLER_16_3
*691 FILLER_16_41
*692 FILLER_16_60
*693 FILLER_16_80
*694 FILLER_16_85
*695 FILLER_16_97
*696 FILLER_17_10
*697 FILLER_17_105
*698 FILLER_17_111
*699 FILLER_17_129
*700 FILLER_17_141
*701 FILLER_17_153
*702 FILLER_17_165
*703 FILLER_17_169
*704 FILLER_17_177
*705 FILLER_17_186
*706 FILLER_17_192
*707 FILLER_17_201
*708 FILLER_17_209
*709 FILLER_17_215
*710 FILLER_17_223
*711 FILLER_17_235
*712 FILLER_17_241
*713 FILLER_17_245
*714 FILLER_17_257
*715 FILLER_17_269
*716 FILLER_17_277
*717 FILLER_17_281
*718 FILLER_17_293
*719 FILLER_17_3
*720 FILLER_17_36
*721 FILLER_17_48
*722 FILLER_17_57
*723 FILLER_17_69
*724 FILLER_17_93
*725 FILLER_18_117
*726 FILLER_18_129
*727 FILLER_18_137
*728 FILLER_18_141
*729 FILLER_18_153
*730 FILLER_18_165
*731 FILLER_18_176
*732 FILLER_18_19
*733 FILLER_18_192
*734 FILLER_18_197
*735 FILLER_18_209
*736 FILLER_18_226
*737 FILLER_18_232
*738 FILLER_18_236
*739 FILLER_18_242
*740 FILLER_18_248
*741 FILLER_18_258
*742 FILLER_18_27
*743 FILLER_18_270
*744 FILLER_18_282
*745 FILLER_18_294
*746 FILLER_18_298
*747 FILLER_18_32
*748 FILLER_18_60
*749 FILLER_18_80
*750 FILLER_18_85
*751 FILLER_18_97
*752 FILLER_19_101
*753 FILLER_19_109
*754 FILLER_19_113
*755 FILLER_19_125
*756 FILLER_19_137
*757 FILLER_19_149
*758 FILLER_19_161
*759 FILLER_19_167
*760 FILLER_19_169
*761 FILLER_19_181
*762 FILLER_19_193
*763 FILLER_19_20
*764 FILLER_19_201
*765 FILLER_19_213
*766 FILLER_19_221
*767 FILLER_19_225
*768 FILLER_19_235
*769 FILLER_19_24
*770 FILLER_19_241
*771 FILLER_19_248
*772 FILLER_19_260
*773 FILLER_19_272
*774 FILLER_19_281
*775 FILLER_19_294
*776 FILLER_19_298
*777 FILLER_19_43
*778 FILLER_19_55
*779 FILLER_19_57
*780 FILLER_19_69
*781 FILLER_19_89
*782 FILLER_1_108
*783 FILLER_1_129
*784 FILLER_1_138
*785 FILLER_1_15
*786 FILLER_1_150
*787 FILLER_1_162
*788 FILLER_1_175
*789 FILLER_1_182
*790 FILLER_1_189
*791 FILLER_1_201
*792 FILLER_1_215
*793 FILLER_1_223
*794 FILLER_1_225
*795 FILLER_1_237
*796 FILLER_1_241
*797 FILLER_1_247
*798 FILLER_1_259
*799 FILLER_1_271
*800 FILLER_1_279
*801 FILLER_1_281
*802 FILLER_1_289
*803 FILLER_1_295
*804 FILLER_1_3
*805 FILLER_1_32
*806 FILLER_1_52
*807 FILLER_1_57
*808 FILLER_1_69
*809 FILLER_1_88
*810 FILLER_20_115
*811 FILLER_20_127
*812 FILLER_20_139
*813 FILLER_20_141
*814 FILLER_20_153
*815 FILLER_20_165
*816 FILLER_20_177
*817 FILLER_20_189
*818 FILLER_20_195
*819 FILLER_20_197
*820 FILLER_20_20
*821 FILLER_20_209
*822 FILLER_20_221
*823 FILLER_20_233
*824 FILLER_20_237
*825 FILLER_20_24
*826 FILLER_20_241
*827 FILLER_20_249
*828 FILLER_20_253
*829 FILLER_20_265
*830 FILLER_20_277
*831 FILLER_20_289
*832 FILLER_20_29
*833 FILLER_20_297
*834 FILLER_20_49
*835 FILLER_20_69
*836 FILLER_20_81
*837 FILLER_20_85
*838 FILLER_20_97
*839 FILLER_21_108
*840 FILLER_21_113
*841 FILLER_21_125
*842 FILLER_21_137
*843 FILLER_21_145
*844 FILLER_21_154
*845 FILLER_21_166
*846 FILLER_21_169
*847 FILLER_21_175
*848 FILLER_21_184
*849 FILLER_21_192
*850 FILLER_21_204
*851 FILLER_21_210
*852 FILLER_21_222
*853 FILLER_21_225
*854 FILLER_21_23
*855 FILLER_21_237
*856 FILLER_21_249
*857 FILLER_21_261
*858 FILLER_21_273
*859 FILLER_21_279
*860 FILLER_21_281
*861 FILLER_21_293
*862 FILLER_21_3
*863 FILLER_21_44
*864 FILLER_21_57
*865 FILLER_21_69
*866 FILLER_21_88
*867 FILLER_22_117
*868 FILLER_22_129
*869 FILLER_22_137
*870 FILLER_22_141
*871 FILLER_22_153
*872 FILLER_22_165
*873 FILLER_22_177
*874 FILLER_22_192
*875 FILLER_22_197
*876 FILLER_22_201
*877 FILLER_22_210
*878 FILLER_22_222
*879 FILLER_22_239
*880 FILLER_22_24
*881 FILLER_22_251
*882 FILLER_22_253
*883 FILLER_22_269
*884 FILLER_22_281
*885 FILLER_22_29
*886 FILLER_22_295
*887 FILLER_22_3
*888 FILLER_22_47
*889 FILLER_22_55
*890 FILLER_22_7
*891 FILLER_22_74
*892 FILLER_22_82
*893 FILLER_22_85
*894 FILLER_22_97
*895 FILLER_23_10
*896 FILLER_23_104
*897 FILLER_23_113
*898 FILLER_23_125
*899 FILLER_23_137
*900 FILLER_23_149
*901 FILLER_23_161
*902 FILLER_23_167
*903 FILLER_23_169
*904 FILLER_23_173
*905 FILLER_23_177
*906 FILLER_23_185
*907 FILLER_23_197
*908 FILLER_23_201
*909 FILLER_23_209
*910 FILLER_23_220
*911 FILLER_23_225
*912 FILLER_23_237
*913 FILLER_23_249
*914 FILLER_23_261
*915 FILLER_23_273
*916 FILLER_23_279
*917 FILLER_23_281
*918 FILLER_23_285
*919 FILLER_23_294
*920 FILLER_23_298
*921 FILLER_23_3
*922 FILLER_23_32
*923 FILLER_23_52
*924 FILLER_23_73
*925 FILLER_23_85
*926 FILLER_24_109
*927 FILLER_24_11
*928 FILLER_24_121
*929 FILLER_24_133
*930 FILLER_24_139
*931 FILLER_24_141
*932 FILLER_24_15
*933 FILLER_24_153
*934 FILLER_24_165
*935 FILLER_24_173
*936 FILLER_24_178
*937 FILLER_24_182
*938 FILLER_24_192
*939 FILLER_24_197
*940 FILLER_24_204
*941 FILLER_24_211
*942 FILLER_24_223
*943 FILLER_24_227
*944 FILLER_24_233
*945 FILLER_24_242
*946 FILLER_24_250
*947 FILLER_24_253
*948 FILLER_24_265
*949 FILLER_24_277
*950 FILLER_24_283
*951 FILLER_24_289
*952 FILLER_24_295
*953 FILLER_24_3
*954 FILLER_24_33
*955 FILLER_24_37
*956 FILLER_24_41
*957 FILLER_24_45
*958 FILLER_24_65
*959 FILLER_24_73
*960 FILLER_24_78
*961 FILLER_24_85
*962 FILLER_24_97
*963 FILLER_25_100
*964 FILLER_25_113
*965 FILLER_25_12
*966 FILLER_25_125
*967 FILLER_25_133
*968 FILLER_25_145
*969 FILLER_25_157
*970 FILLER_25_165
*971 FILLER_25_169
*972 FILLER_25_183
*973 FILLER_25_191
*974 FILLER_25_198
*975 FILLER_25_208
*976 FILLER_25_220
*977 FILLER_25_225
*978 FILLER_25_237
*979 FILLER_25_249
*980 FILLER_25_25
*981 FILLER_25_261
*982 FILLER_25_273
*983 FILLER_25_279
*984 FILLER_25_281
*985 FILLER_25_286
*986 FILLER_25_290
*987 FILLER_25_294
*988 FILLER_25_298
*989 FILLER_25_3
*990 FILLER_25_33
*991 FILLER_25_50
*992 FILLER_25_60
*993 FILLER_25_69
*994 FILLER_25_81
*995 FILLER_25_93
*996 FILLER_26_108
*997 FILLER_26_120
*998 FILLER_26_132
*999 FILLER_26_141
*1000 FILLER_26_153
*1001 FILLER_26_165
*1002 FILLER_26_177
*1003 FILLER_26_189
*1004 FILLER_26_195
*1005 FILLER_26_197
*1006 FILLER_26_205
*1007 FILLER_26_214
*1008 FILLER_26_22
*1009 FILLER_26_220
*1010 FILLER_26_226
*1011 FILLER_26_238
*1012 FILLER_26_250
*1013 FILLER_26_253
*1014 FILLER_26_265
*1015 FILLER_26_277
*1016 FILLER_26_283
*1017 FILLER_26_290
*1018 FILLER_26_298
*1019 FILLER_26_3
*1020 FILLER_26_38
*1021 FILLER_26_44
*1022 FILLER_26_48
*1023 FILLER_26_55
*1024 FILLER_26_64
*1025 FILLER_26_76
*1026 FILLER_26_85
*1027 FILLER_26_9
*1028 FILLER_26_96
*1029 FILLER_27_105
*1030 FILLER_27_111
*1031 FILLER_27_113
*1032 FILLER_27_121
*1033 FILLER_27_131
*1034 FILLER_27_143
*1035 FILLER_27_15
*1036 FILLER_27_155
*1037 FILLER_27_167
*1038 FILLER_27_172
*1039 FILLER_27_184
*1040 FILLER_27_196
*1041 FILLER_27_208
*1042 FILLER_27_220
*1043 FILLER_27_225
*1044 FILLER_27_23
*1045 FILLER_27_237
*1046 FILLER_27_249
*1047 FILLER_27_261
*1048 FILLER_27_273
*1049 FILLER_27_279
*1050 FILLER_27_281
*1051 FILLER_27_293
*1052 FILLER_27_3
*1053 FILLER_27_31
*1054 FILLER_27_46
*1055 FILLER_27_54
*1056 FILLER_27_57
*1057 FILLER_27_62
*1058 FILLER_27_69
*1059 FILLER_27_8
*1060 FILLER_27_81
*1061 FILLER_27_93
*1062 FILLER_28_109
*1063 FILLER_28_121
*1064 FILLER_28_133
*1065 FILLER_28_139
*1066 FILLER_28_141
*1067 FILLER_28_15
*1068 FILLER_28_153
*1069 FILLER_28_157
*1070 FILLER_28_167
*1071 FILLER_28_175
*1072 FILLER_28_182
*1073 FILLER_28_194
*1074 FILLER_28_197
*1075 FILLER_28_201
*1076 FILLER_28_206
*1077 FILLER_28_218
*1078 FILLER_28_230
*1079 FILLER_28_234
*1080 FILLER_28_238
*1081 FILLER_28_24
*1082 FILLER_28_250
*1083 FILLER_28_253
*1084 FILLER_28_261
*1085 FILLER_28_266
*1086 FILLER_28_287
*1087 FILLER_28_294
*1088 FILLER_28_298
*1089 FILLER_28_3
*1090 FILLER_28_32
*1091 FILLER_28_38
*1092 FILLER_28_43
*1093 FILLER_28_52
*1094 FILLER_28_61
*1095 FILLER_28_73
*1096 FILLER_28_81
*1097 FILLER_28_85
*1098 FILLER_28_97
*1099 FILLER_29_106
*1100 FILLER_29_113
*1101 FILLER_29_125
*1102 FILLER_29_137
*1103 FILLER_29_149
*1104 FILLER_29_15
*1105 FILLER_29_153
*1106 FILLER_29_158
*1107 FILLER_29_166
*1108 FILLER_29_173
*1109 FILLER_29_186
*1110 FILLER_29_19
*1111 FILLER_29_198
*1112 FILLER_29_210
*1113 FILLER_29_222
*1114 FILLER_29_232
*1115 FILLER_29_244
*1116 FILLER_29_254
*1117 FILLER_29_26
*1118 FILLER_29_266
*1119 FILLER_29_278
*1120 FILLER_29_281
*1121 FILLER_29_293
*1122 FILLER_29_3
*1123 FILLER_29_35
*1124 FILLER_29_42
*1125 FILLER_29_51
*1126 FILLER_29_55
*1127 FILLER_29_57
*1128 FILLER_29_70
*1129 FILLER_29_82
*1130 FILLER_29_94
*1131 FILLER_2_110
*1132 FILLER_2_131
*1133 FILLER_2_139
*1134 FILLER_2_141
*1135 FILLER_2_149
*1136 FILLER_2_161
*1137 FILLER_2_173
*1138 FILLER_2_177
*1139 FILLER_2_186
*1140 FILLER_2_194
*1141 FILLER_2_197
*1142 FILLER_2_20
*1143 FILLER_2_209
*1144 FILLER_2_214
*1145 FILLER_2_226
*1146 FILLER_2_238
*1147 FILLER_2_250
*1148 FILLER_2_253
*1149 FILLER_2_261
*1150 FILLER_2_269
*1151 FILLER_2_281
*1152 FILLER_2_29
*1153 FILLER_2_293
*1154 FILLER_2_41
*1155 FILLER_2_60
*1156 FILLER_2_80
*1157 FILLER_2_85
*1158 FILLER_30_104
*1159 FILLER_30_116
*1160 FILLER_30_128
*1161 FILLER_30_141
*1162 FILLER_30_15
*1163 FILLER_30_153
*1164 FILLER_30_161
*1165 FILLER_30_166
*1166 FILLER_30_178
*1167 FILLER_30_190
*1168 FILLER_30_197
*1169 FILLER_30_209
*1170 FILLER_30_219
*1171 FILLER_30_226
*1172 FILLER_30_234
*1173 FILLER_30_24
*1174 FILLER_30_246
*1175 FILLER_30_253
*1176 FILLER_30_265
*1177 FILLER_30_277
*1178 FILLER_30_289
*1179 FILLER_30_29
*1180 FILLER_30_297
*1181 FILLER_30_3
*1182 FILLER_30_33
*1183 FILLER_30_47
*1184 FILLER_30_55
*1185 FILLER_30_59
*1186 FILLER_30_68
*1187 FILLER_30_80
*1188 FILLER_30_85
*1189 FILLER_30_93
*1190 FILLER_31_107
*1191 FILLER_31_111
*1192 FILLER_31_113
*1193 FILLER_31_121
*1194 FILLER_31_133
*1195 FILLER_31_145
*1196 FILLER_31_15
*1197 FILLER_31_152
*1198 FILLER_31_164
*1199 FILLER_31_174
*1200 FILLER_31_186
*1201 FILLER_31_19
*1202 FILLER_31_198
*1203 FILLER_31_210
*1204 FILLER_31_222
*1205 FILLER_31_225
*1206 FILLER_31_237
*1207 FILLER_31_241
*1208 FILLER_31_248
*1209 FILLER_31_260
*1210 FILLER_31_27
*1211 FILLER_31_272
*1212 FILLER_31_281
*1213 FILLER_31_293
*1214 FILLER_31_3
*1215 FILLER_31_35
*1216 FILLER_31_40
*1217 FILLER_31_48
*1218 FILLER_31_57
*1219 FILLER_31_65
*1220 FILLER_31_71
*1221 FILLER_31_79
*1222 FILLER_31_85
*1223 FILLER_31_99
*1224 FILLER_32_105
*1225 FILLER_32_117
*1226 FILLER_32_129
*1227 FILLER_32_137
*1228 FILLER_32_141
*1229 FILLER_32_15
*1230 FILLER_32_153
*1231 FILLER_32_165
*1232 FILLER_32_173
*1233 FILLER_32_181
*1234 FILLER_32_185
*1235 FILLER_32_191
*1236 FILLER_32_195
*1237 FILLER_32_197
*1238 FILLER_32_207
*1239 FILLER_32_219
*1240 FILLER_32_231
*1241 FILLER_32_243
*1242 FILLER_32_251
*1243 FILLER_32_253
*1244 FILLER_32_265
*1245 FILLER_32_27
*1246 FILLER_32_277
*1247 FILLER_32_281
*1248 FILLER_32_29
*1249 FILLER_32_295
*1250 FILLER_32_3
*1251 FILLER_32_37
*1252 FILLER_32_47
*1253 FILLER_32_60
*1254 FILLER_32_69
*1255 FILLER_32_81
*1256 FILLER_32_85
*1257 FILLER_32_97
*1258 FILLER_33_105
*1259 FILLER_33_111
*1260 FILLER_33_121
*1261 FILLER_33_133
*1262 FILLER_33_144
*1263 FILLER_33_15
*1264 FILLER_33_154
*1265 FILLER_33_166
*1266 FILLER_33_172
*1267 FILLER_33_187
*1268 FILLER_33_199
*1269 FILLER_33_211
*1270 FILLER_33_223
*1271 FILLER_33_225
*1272 FILLER_33_237
*1273 FILLER_33_249
*1274 FILLER_33_269
*1275 FILLER_33_27
*1276 FILLER_33_277
*1277 FILLER_33_281
*1278 FILLER_33_293
*1279 FILLER_33_3
*1280 FILLER_33_33
*1281 FILLER_33_41
*1282 FILLER_33_48
*1283 FILLER_33_57
*1284 FILLER_33_64
*1285 FILLER_33_68
*1286 FILLER_33_77
*1287 FILLER_33_85
*1288 FILLER_33_91
*1289 FILLER_33_99
*1290 FILLER_34_105
*1291 FILLER_34_114
*1292 FILLER_34_122
*1293 FILLER_34_129
*1294 FILLER_34_13
*1295 FILLER_34_137
*1296 FILLER_34_141
*1297 FILLER_34_157
*1298 FILLER_34_165
*1299 FILLER_34_171
*1300 FILLER_34_183
*1301 FILLER_34_195
*1302 FILLER_34_197
*1303 FILLER_34_209
*1304 FILLER_34_221
*1305 FILLER_34_233
*1306 FILLER_34_245
*1307 FILLER_34_25
*1308 FILLER_34_251
*1309 FILLER_34_253
*1310 FILLER_34_265
*1311 FILLER_34_277
*1312 FILLER_34_288
*1313 FILLER_34_296
*1314 FILLER_34_3
*1315 FILLER_34_38
*1316 FILLER_34_46
*1317 FILLER_34_57
*1318 FILLER_34_66
*1319 FILLER_34_77
*1320 FILLER_34_83
*1321 FILLER_34_91
*1322 FILLER_34_99
*1323 FILLER_35_108
*1324 FILLER_35_113
*1325 FILLER_35_124
*1326 FILLER_35_134
*1327 FILLER_35_146
*1328 FILLER_35_15
*1329 FILLER_35_157
*1330 FILLER_35_165
*1331 FILLER_35_175
*1332 FILLER_35_183
*1333 FILLER_35_190
*1334 FILLER_35_202
*1335 FILLER_35_214
*1336 FILLER_35_222
*1337 FILLER_35_225
*1338 FILLER_35_237
*1339 FILLER_35_249
*1340 FILLER_35_261
*1341 FILLER_35_27
*1342 FILLER_35_273
*1343 FILLER_35_279
*1344 FILLER_35_281
*1345 FILLER_35_293
*1346 FILLER_35_3
*1347 FILLER_35_35
*1348 FILLER_35_48
*1349 FILLER_35_57
*1350 FILLER_35_66
*1351 FILLER_35_80
*1352 FILLER_35_92
*1353 FILLER_36_110
*1354 FILLER_36_114
*1355 FILLER_36_123
*1356 FILLER_36_135
*1357 FILLER_36_139
*1358 FILLER_36_141
*1359 FILLER_36_15
*1360 FILLER_36_153
*1361 FILLER_36_165
*1362 FILLER_36_181
*1363 FILLER_36_193
*1364 FILLER_36_197
*1365 FILLER_36_208
*1366 FILLER_36_220
*1367 FILLER_36_228
*1368 FILLER_36_234
*1369 FILLER_36_246
*1370 FILLER_36_253
*1371 FILLER_36_262
*1372 FILLER_36_27
*1373 FILLER_36_274
*1374 FILLER_36_286
*1375 FILLER_36_29
*1376 FILLER_36_298
*1377 FILLER_36_3
*1378 FILLER_36_41
*1379 FILLER_36_53
*1380 FILLER_36_59
*1381 FILLER_36_68
*1382 FILLER_36_80
*1383 FILLER_36_85
*1384 FILLER_36_93
*1385 FILLER_36_98
*1386 FILLER_37_108
*1387 FILLER_37_119
*1388 FILLER_37_131
*1389 FILLER_37_14
*1390 FILLER_37_143
*1391 FILLER_37_155
*1392 FILLER_37_167
*1393 FILLER_37_174
*1394 FILLER_37_178
*1395 FILLER_37_184
*1396 FILLER_37_191
*1397 FILLER_37_203
*1398 FILLER_37_215
*1399 FILLER_37_223
*1400 FILLER_37_225
*1401 FILLER_37_237
*1402 FILLER_37_249
*1403 FILLER_37_26
*1404 FILLER_37_261
*1405 FILLER_37_273
*1406 FILLER_37_279
*1407 FILLER_37_281
*1408 FILLER_37_293
*1409 FILLER_37_3
*1410 FILLER_37_38
*1411 FILLER_37_50
*1412 FILLER_37_57
*1413 FILLER_37_69
*1414 FILLER_37_75
*1415 FILLER_37_84
*1416 FILLER_37_92
*1417 FILLER_38_105
*1418 FILLER_38_117
*1419 FILLER_38_126
*1420 FILLER_38_138
*1421 FILLER_38_141
*1422 FILLER_38_147
*1423 FILLER_38_15
*1424 FILLER_38_151
*1425 FILLER_38_163
*1426 FILLER_38_175
*1427 FILLER_38_187
*1428 FILLER_38_195
*1429 FILLER_38_197
*1430 FILLER_38_209
*1431 FILLER_38_221
*1432 FILLER_38_233
*1433 FILLER_38_24
*1434 FILLER_38_245
*1435 FILLER_38_251
*1436 FILLER_38_253
*1437 FILLER_38_265
*1438 FILLER_38_277
*1439 FILLER_38_289
*1440 FILLER_38_297
*1441 FILLER_38_3
*1442 FILLER_38_38
*1443 FILLER_38_45
*1444 FILLER_38_57
*1445 FILLER_38_71
*1446 FILLER_38_83
*1447 FILLER_38_89
*1448 FILLER_38_97
*1449 FILLER_39_106
*1450 FILLER_39_119
*1451 FILLER_39_131
*1452 FILLER_39_143
*1453 FILLER_39_15
*1454 FILLER_39_155
*1455 FILLER_39_167
*1456 FILLER_39_182
*1457 FILLER_39_190
*1458 FILLER_39_199
*1459 FILLER_39_207
*1460 FILLER_39_219
*1461 FILLER_39_223
*1462 FILLER_39_225
*1463 FILLER_39_237
*1464 FILLER_39_249
*1465 FILLER_39_261
*1466 FILLER_39_269
*1467 FILLER_39_27
*1468 FILLER_39_275
*1469 FILLER_39_279
*1470 FILLER_39_281
*1471 FILLER_39_293
*1472 FILLER_39_3
*1473 FILLER_39_44
*1474 FILLER_39_62
*1475 FILLER_39_66
*1476 FILLER_39_75
*1477 FILLER_39_87
*1478 FILLER_39_98
*1479 FILLER_3_107
*1480 FILLER_3_111
*1481 FILLER_3_129
*1482 FILLER_3_141
*1483 FILLER_3_15
*1484 FILLER_3_153
*1485 FILLER_3_165
*1486 FILLER_3_169
*1487 FILLER_3_181
*1488 FILLER_3_189
*1489 FILLER_3_204
*1490 FILLER_3_216
*1491 FILLER_3_225
*1492 FILLER_3_237
*1493 FILLER_3_249
*1494 FILLER_3_261
*1495 FILLER_3_273
*1496 FILLER_3_279
*1497 FILLER_3_281
*1498 FILLER_3_293
*1499 FILLER_3_3
*1500 FILLER_3_36
*1501 FILLER_3_48
*1502 FILLER_3_57
*1503 FILLER_3_69
*1504 FILLER_3_93
*1505 FILLER_40_102
*1506 FILLER_40_106
*1507 FILLER_40_111
*1508 FILLER_40_124
*1509 FILLER_40_136
*1510 FILLER_40_14
*1511 FILLER_40_141
*1512 FILLER_40_149
*1513 FILLER_40_156
*1514 FILLER_40_168
*1515 FILLER_40_180
*1516 FILLER_40_192
*1517 FILLER_40_201
*1518 FILLER_40_205
*1519 FILLER_40_215
*1520 FILLER_40_224
*1521 FILLER_40_236
*1522 FILLER_40_248
*1523 FILLER_40_253
*1524 FILLER_40_26
*1525 FILLER_40_265
*1526 FILLER_40_273
*1527 FILLER_40_276
*1528 FILLER_40_284
*1529 FILLER_40_29
*1530 FILLER_40_296
*1531 FILLER_40_3
*1532 FILLER_40_33
*1533 FILLER_40_45
*1534 FILLER_40_51
*1535 FILLER_40_57
*1536 FILLER_40_69
*1537 FILLER_40_80
*1538 FILLER_40_90
*1539 FILLER_41_108
*1540 FILLER_41_116
*1541 FILLER_41_120
*1542 FILLER_41_128
*1543 FILLER_41_145
*1544 FILLER_41_15
*1545 FILLER_41_157
*1546 FILLER_41_165
*1547 FILLER_41_169
*1548 FILLER_41_177
*1549 FILLER_41_186
*1550 FILLER_41_196
*1551 FILLER_41_206
*1552 FILLER_41_218
*1553 FILLER_41_225
*1554 FILLER_41_237
*1555 FILLER_41_249
*1556 FILLER_41_261
*1557 FILLER_41_27
*1558 FILLER_41_273
*1559 FILLER_41_279
*1560 FILLER_41_281
*1561 FILLER_41_293
*1562 FILLER_41_3
*1563 FILLER_41_39
*1564 FILLER_41_49
*1565 FILLER_41_55
*1566 FILLER_41_62
*1567 FILLER_41_71
*1568 FILLER_41_75
*1569 FILLER_41_81
*1570 FILLER_41_89
*1571 FILLER_42_108
*1572 FILLER_42_120
*1573 FILLER_42_124
*1574 FILLER_42_130
*1575 FILLER_42_138
*1576 FILLER_42_141
*1577 FILLER_42_147
*1578 FILLER_42_15
*1579 FILLER_42_157
*1580 FILLER_42_169
*1581 FILLER_42_181
*1582 FILLER_42_193
*1583 FILLER_42_197
*1584 FILLER_42_209
*1585 FILLER_42_223
*1586 FILLER_42_235
*1587 FILLER_42_247
*1588 FILLER_42_251
*1589 FILLER_42_253
*1590 FILLER_42_265
*1591 FILLER_42_27
*1592 FILLER_42_277
*1593 FILLER_42_289
*1594 FILLER_42_29
*1595 FILLER_42_297
*1596 FILLER_42_3
*1597 FILLER_42_40
*1598 FILLER_42_52
*1599 FILLER_42_64
*1600 FILLER_42_76
*1601 FILLER_42_85
*1602 FILLER_42_97
*1603 FILLER_43_110
*1604 FILLER_43_113
*1605 FILLER_43_120
*1606 FILLER_43_132
*1607 FILLER_43_138
*1608 FILLER_43_142
*1609 FILLER_43_15
*1610 FILLER_43_154
*1611 FILLER_43_166
*1612 FILLER_43_169
*1613 FILLER_43_181
*1614 FILLER_43_187
*1615 FILLER_43_197
*1616 FILLER_43_209