*SPEF "ieee 1481-1999"
*DESIGN "cpldcpu_MCPU5plus"
*DATE "11:11:11 Fri 11 11, 1111"
*VENDOR "OpenRCX"
*PROGRAM "Parallel Extraction"
*VERSION "1.0"
*DESIGN_FLOW "NAME_SCOPE LOCAL" "PIN_CAP NONE"
*DIVIDER /
*DELIMITER :
*BUS_DELIMITER []
*T_UNIT 1 NS
*C_UNIT 1 PF
*R_UNIT 1 OHM
*L_UNIT 1 HENRY

*NAME_MAP
*1 io_in[0]
*2 io_in[1]
*3 io_in[2]
*4 io_in[3]
*5 io_in[4]
*6 io_in[5]
*7 io_in[6]
*8 io_in[7]
*9 io_out[0]
*10 io_out[1]
*11 io_out[2]
*12 io_out[3]
*13 io_out[4]
*14 io_out[5]
*15 io_out[6]
*16 io_out[7]
*19 MCPU5plus_top\.accu\[0\]
*20 MCPU5plus_top\.accu\[1\]
*21 MCPU5plus_top\.accu\[2\]
*22 MCPU5plus_top\.accu\[3\]
*23 MCPU5plus_top\.accu\[4\]
*24 MCPU5plus_top\.accu\[5\]
*25 MCPU5plus_top\.accu\[6\]
*26 MCPU5plus_top\.accu\[7\]
*27 MCPU5plus_top\.accu\[8\]
*28 MCPU5plus_top\.iflag
*29 MCPU5plus_top\.pc\[0\]
*30 MCPU5plus_top\.pc\[1\]
*31 MCPU5plus_top\.pc\[2\]
*32 MCPU5plus_top\.pc\[3\]
*33 MCPU5plus_top\.pc\[4\]
*34 MCPU5plus_top\.pc\[5\]
*35 MCPU5plus_top\.pc\[6\]
*36 MCPU5plus_top\.pc\[7\]
*37 MCPU5plus_top\.regfile\[0\]\[0\]
*38 MCPU5plus_top\.regfile\[0\]\[1\]
*39 MCPU5plus_top\.regfile\[0\]\[2\]
*40 MCPU5plus_top\.regfile\[0\]\[3\]
*41 MCPU5plus_top\.regfile\[0\]\[4\]
*42 MCPU5plus_top\.regfile\[0\]\[5\]
*43 MCPU5plus_top\.regfile\[0\]\[6\]
*44 MCPU5plus_top\.regfile\[0\]\[7\]
*45 MCPU5plus_top\.regfile\[1\]\[0\]
*46 MCPU5plus_top\.regfile\[1\]\[1\]
*47 MCPU5plus_top\.regfile\[1\]\[2\]
*48 MCPU5plus_top\.regfile\[1\]\[3\]
*49 MCPU5plus_top\.regfile\[1\]\[4\]
*50 MCPU5plus_top\.regfile\[1\]\[5\]
*51 MCPU5plus_top\.regfile\[1\]\[6\]
*52 MCPU5plus_top\.regfile\[1\]\[7\]
*53 MCPU5plus_top\.regfile\[2\]\[0\]
*54 MCPU5plus_top\.regfile\[2\]\[1\]
*55 MCPU5plus_top\.regfile\[2\]\[2\]
*56 MCPU5plus_top\.regfile\[2\]\[3\]
*57 MCPU5plus_top\.regfile\[2\]\[4\]
*58 MCPU5plus_top\.regfile\[2\]\[5\]
*59 MCPU5plus_top\.regfile\[2\]\[6\]
*60 MCPU5plus_top\.regfile\[2\]\[7\]
*61 MCPU5plus_top\.regfile\[3\]\[0\]
*62 MCPU5plus_top\.regfile\[3\]\[1\]
*63 MCPU5plus_top\.regfile\[3\]\[2\]
*64 MCPU5plus_top\.regfile\[3\]\[3\]
*65 MCPU5plus_top\.regfile\[3\]\[4\]
*66 MCPU5plus_top\.regfile\[3\]\[5\]
*67 MCPU5plus_top\.regfile\[3\]\[6\]
*68 MCPU5plus_top\.regfile\[3\]\[7\]
*69 MCPU5plus_top\.regfile\[4\]\[0\]
*70 MCPU5plus_top\.regfile\[4\]\[1\]
*71 MCPU5plus_top\.regfile\[4\]\[2\]
*72 MCPU5plus_top\.regfile\[4\]\[3\]
*73 MCPU5plus_top\.regfile\[4\]\[4\]
*74 MCPU5plus_top\.regfile\[4\]\[5\]
*75 MCPU5plus_top\.regfile\[4\]\[6\]
*76 MCPU5plus_top\.regfile\[4\]\[7\]
*77 MCPU5plus_top\.regfile\[5\]\[0\]
*78 MCPU5plus_top\.regfile\[5\]\[1\]
*79 MCPU5plus_top\.regfile\[5\]\[2\]
*80 MCPU5plus_top\.regfile\[5\]\[3\]
*81 MCPU5plus_top\.regfile\[5\]\[4\]
*82 MCPU5plus_top\.regfile\[5\]\[5\]
*83 MCPU5plus_top\.regfile\[5\]\[6\]
*84 MCPU5plus_top\.regfile\[5\]\[7\]
*85 MCPU5plus_top\.regfile\[6\]\[0\]
*86 MCPU5plus_top\.regfile\[6\]\[1\]
*87 MCPU5plus_top\.regfile\[6\]\[2\]
*88 MCPU5plus_top\.regfile\[6\]\[3\]
*89 MCPU5plus_top\.regfile\[6\]\[4\]
*90 MCPU5plus_top\.regfile\[6\]\[5\]
*91 MCPU5plus_top\.regfile\[6\]\[6\]
*92 MCPU5plus_top\.regfile\[6\]\[7\]
*93 MCPU5plus_top\.regfile\[7\]\[0\]
*94 MCPU5plus_top\.regfile\[7\]\[1\]
*95 MCPU5plus_top\.regfile\[7\]\[2\]
*96 MCPU5plus_top\.regfile\[7\]\[3\]
*97 MCPU5plus_top\.regfile\[7\]\[4\]
*98 MCPU5plus_top\.regfile\[7\]\[5\]
*99 MCPU5plus_top\.regfile\[7\]\[6\]
*100 MCPU5plus_top\.regfile\[7\]\[7\]
*101 _000_
*102 _001_
*103 _002_
*104 _003_
*105 _004_
*106 _005_
*107 _006_
*108 _007_
*109 _008_
*110 _009_
*111 _010_
*112 _011_
*113 _012_
*114 _013_
*115 _014_
*116 _015_
*117 _016_
*118 _017_
*119 _018_
*120 _019_
*121 _020_
*122 _021_
*123 _022_
*124 _023_
*125 _024_
*126 _025_
*127 _026_
*128 _027_
*129 _028_
*130 _029_
*131 _030_
*132 _031_
*133 _032_
*134 _033_
*135 _034_
*136 _035_
*137 _036_
*138 _037_
*139 _038_
*140 _039_
*141 _040_
*142 _041_
*143 _042_
*144 _043_
*145 _044_
*146 _045_
*147 _046_
*148 _047_
*149 _048_
*150 _049_
*151 _050_
*152 _051_
*153 _052_
*154 _053_
*155 _054_
*156 _055_
*157 _056_
*158 _057_
*159 _058_
*160 _059_
*161 _060_
*162 _061_
*163 _062_
*164 _063_
*165 _064_
*166 _065_
*167 _066_
*168 _067_
*169 _068_
*170 _069_
*171 _070_
*172 _071_
*173 _072_
*174 _073_
*175 _074_
*176 _075_
*177 _076_
*178 _077_
*179 _078_
*180 _079_
*181 _080_
*182 _081_
*183 _082_
*184 _083_
*185 _084_
*186 _085_
*187 _086_
*188 _087_
*189 _088_
*190 _089_
*191 _090_
*192 _091_
*193 _092_
*194 _093_
*195 _094_
*196 _095_
*197 _096_
*198 _097_
*199 _098_
*200 _099_
*201 _100_
*202 _101_
*203 _102_
*204 _103_
*205 _104_
*206 _105_
*207 _106_
*208 _107_
*209 _108_
*210 _109_
*211 _110_
*212 _111_
*213 _112_
*214 _113_
*215 _114_
*216 _115_
*217 _116_
*218 _117_
*219 _118_
*220 _119_
*221 _120_
*222 _121_
*223 _122_
*224 _123_
*225 _124_
*226 _125_
*227 _126_
*228 _127_
*229 _128_
*230 _129_
*231 _130_
*232 _131_
*233 _132_
*234 _133_
*235 _134_
*236 _135_
*237 _136_
*238 _137_
*239 _138_
*240 _139_
*241 _140_
*242 _141_
*243 _142_
*244 _143_
*245 _144_
*246 _145_
*247 _146_
*248 _147_
*249 _148_
*250 _149_
*251 _150_
*252 _151_
*253 _152_
*254 _153_
*255 _154_
*256 _155_
*257 _156_
*258 _157_
*259 _158_
*260 _159_
*261 _160_
*262 _161_
*263 _162_
*264 _163_
*265 _164_
*266 _165_
*267 _166_
*268 _167_
*269 _168_
*270 _169_
*271 _170_
*272 _171_
*273 _172_
*274 _173_
*275 _174_
*276 _175_
*277 _176_
*278 _177_
*279 _178_
*280 _179_
*281 _180_
*282 _181_
*283 _182_
*284 _183_
*285 _184_
*286 _185_
*287 _186_
*288 _187_
*289 _188_
*290 _189_
*291 _190_
*292 _191_
*293 _192_
*294 _193_
*295 _194_
*296 _195_
*297 _196_
*298 _197_
*299 _198_
*300 _199_
*301 _200_
*302 _201_
*303 _202_
*304 _203_
*305 _204_
*306 _205_
*307 _206_
*308 _207_
*309 _208_
*310 _209_
*311 _210_
*312 _211_
*313 _212_
*314 _213_
*315 _214_
*316 _215_
*317 _216_
*318 _217_
*319 _218_
*320 _219_
*321 _220_
*322 _221_
*323 _222_
*324 _223_
*325 _224_
*326 _225_
*327 _226_
*328 _227_
*329 _228_
*330 _229_
*331 _230_
*332 _231_
*333 _232_
*334 _233_
*335 _234_
*336 _235_
*337 _236_
*338 _237_
*339 _238_
*340 _239_
*341 _240_
*342 _241_
*343 _242_
*344 _243_
*345 _244_
*346 _245_
*347 _246_
*348 _247_
*349 _248_
*350 _249_
*351 _250_
*352 _251_
*353 _252_
*354 _253_
*355 _254_
*356 _255_
*357 _256_
*358 _257_
*359 _258_
*360 _259_
*361 _260_
*362 _261_
*363 _262_
*364 _263_
*365 _264_
*366 _265_
*367 _266_
*368 _267_
*369 _268_
*370 _269_
*371 _270_
*372 _271_
*373 _272_
*374 _273_
*375 _274_
*376 _275_
*377 _276_
*378 _277_
*379 _278_
*380 _279_
*381 _280_
*382 _281_
*383 _282_
*384 _283_
*385 _284_
*386 _285_
*387 _286_
*388 _287_
*389 _288_
*390 _289_
*391 _290_
*392 _291_
*393 _292_
*394 _293_
*395 _294_
*396 _295_
*397 _296_
*398 _297_
*399 _298_
*400 _299_
*401 _300_
*402 clknet_0__000_
*403 clknet_0__001_
*404 clknet_0__002_
*405 clknet_0__003_
*406 clknet_0__004_
*407 clknet_0__005_
*408 clknet_0__006_
*409 clknet_0__007_
*410 clknet_0__036_
*411 clknet_0__037_
*412 clknet_0__062_
*413 clknet_0_io_in[0]
*414 clknet_1_0__leaf__000_
*415 clknet_1_0__leaf__001_
*416 clknet_1_0__leaf__002_
*417 clknet_1_0__leaf__003_
*418 clknet_1_0__leaf__004_
*419 clknet_1_0__leaf__005_
*420 clknet_1_0__leaf__006_
*421 clknet_1_0__leaf__007_
*422 clknet_1_0__leaf__036_
*423 clknet_1_0__leaf__037_
*424 clknet_1_0__leaf__062_
*425 clknet_1_0__leaf_io_in[0]
*426 clknet_1_1__leaf__000_
*427 clknet_1_1__leaf__001_
*428 clknet_1_1__leaf__002_
*429 clknet_1_1__leaf__003_
*430 clknet_1_1__leaf__004_
*431 clknet_1_1__leaf__005_
*432 clknet_1_1__leaf__006_
*433 clknet_1_1__leaf__007_
*434 clknet_1_1__leaf__036_
*435 clknet_1_1__leaf__037_
*436 clknet_1_1__leaf__062_
*437 clknet_1_1__leaf_io_in[0]
*438 net1
*439 net10
*440 net11
*441 net12
*442 net13
*443 net14
*444 net15
*445 net16
*446 net17
*447 net18
*448 net19
*449 net2
*450 net20
*451 net21
*452 net22
*453 net23
*454 net24
*455 net25
*456 net26
*457 net27
*458 net28
*459 net29
*460 net3
*461 net30
*462 net31
*463 net32
*464 net33
*465 net34
*466 net35
*467 net36
*468 net37
*469 net38
*470 net39
*471 net4
*472 net40
*473 net41
*474 net42
*475 net43
*476 net44
*477 net45
*478 net46
*479 net47
*480 net48
*481 net49
*482 net5
*483 net50
*484 net51
*485 net52
*486 net53
*487 net54
*488 net55
*489 net56
*490 net57
*491 net58
*492 net6
*493 net7
*494 net8
*495 net9
*496 ANTENNA_0
*497 ANTENNA_1
*498 ANTENNA_2
*499 ANTENNA_3
*500 ANTENNA_4
*501 FILLER_0_109
*502 FILLER_0_113
*503 FILLER_0_125
*504 FILLER_0_137
*505 FILLER_0_141
*506 FILLER_0_15
*507 FILLER_0_153
*508 FILLER_0_165
*509 FILLER_0_169
*510 FILLER_0_181
*511 FILLER_0_193
*512 FILLER_0_197
*513 FILLER_0_209
*514 FILLER_0_221
*515 FILLER_0_225
*516 FILLER_0_237
*517 FILLER_0_249
*518 FILLER_0_253
*519 FILLER_0_265
*520 FILLER_0_27
*521 FILLER_0_277
*522 FILLER_0_281
*523 FILLER_0_29
*524 FILLER_0_293
*525 FILLER_0_3
*526 FILLER_0_41
*527 FILLER_0_53
*528 FILLER_0_57
*529 FILLER_0_69
*530 FILLER_0_81
*531 FILLER_0_85
*532 FILLER_0_97
*533 FILLER_10_101
*534 FILLER_10_109
*535 FILLER_10_125
*536 FILLER_10_131
*537 FILLER_10_136
*538 FILLER_10_141
*539 FILLER_10_147
*540 FILLER_10_152
*541 FILLER_10_164
*542 FILLER_10_176
*543 FILLER_10_188
*544 FILLER_10_19
*545 FILLER_10_197
*546 FILLER_10_209
*547 FILLER_10_221
*548 FILLER_10_233
*549 FILLER_10_245
*550 FILLER_10_251
*551 FILLER_10_253
*552 FILLER_10_265
*553 FILLER_10_27
*554 FILLER_10_277
*555 FILLER_10_289
*556 FILLER_10_297
*557 FILLER_10_39
*558 FILLER_10_52
*559 FILLER_10_60
*560 FILLER_10_70
*561 FILLER_10_74
*562 FILLER_10_79
*563 FILLER_10_83
*564 FILLER_10_85
*565 FILLER_10_90
*566 FILLER_11_108
*567 FILLER_11_113
*568 FILLER_11_126
*569 FILLER_11_13
*570 FILLER_11_134
*571 FILLER_11_146
*572 FILLER_11_158
*573 FILLER_11_166
*574 FILLER_11_169
*575 FILLER_11_181
*576 FILLER_11_193
*577 FILLER_11_205
*578 FILLER_11_217
*579 FILLER_11_223
*580 FILLER_11_225
*581 FILLER_11_237
*582 FILLER_11_249
*583 FILLER_11_25
*584 FILLER_11_261
*585 FILLER_11_273
*586 FILLER_11_279
*587 FILLER_11_281
*588 FILLER_11_293
*589 FILLER_11_3
*590 FILLER_11_39
*591 FILLER_11_51
*592 FILLER_11_55
*593 FILLER_11_65
*594 FILLER_11_75
*595 FILLER_11_89
*596 FILLER_11_96
*597 FILLER_12_10
*598 FILLER_12_106
*599 FILLER_12_115
*600 FILLER_12_119
*601 FILLER_12_123
*602 FILLER_12_134
*603 FILLER_12_141
*604 FILLER_12_159
*605 FILLER_12_171
*606 FILLER_12_183
*607 FILLER_12_195
*608 FILLER_12_197
*609 FILLER_12_209
*610 FILLER_12_221
*611 FILLER_12_233
*612 FILLER_12_24
*613 FILLER_12_245
*614 FILLER_12_251
*615 FILLER_12_253
*616 FILLER_12_265
*617 FILLER_12_277
*618 FILLER_12_289
*619 FILLER_12_297
*620 FILLER_12_3
*621 FILLER_12_39
*622 FILLER_12_51
*623 FILLER_12_59
*624 FILLER_12_69
*625 FILLER_12_80
*626 FILLER_12_94
*627 FILLER_12_98
*628 FILLER_13_105
*629 FILLER_13_111
*630 FILLER_13_113
*631 FILLER_13_119
*632 FILLER_13_133
*633 FILLER_13_141
*634 FILLER_13_147
*635 FILLER_13_159
*636 FILLER_13_167
*637 FILLER_13_169
*638 FILLER_13_181
*639 FILLER_13_193
*640 FILLER_13_20
*641 FILLER_13_205
*642 FILLER_13_217
*643 FILLER_13_223
*644 FILLER_13_225
*645 FILLER_13_237
*646 FILLER_13_249
*647 FILLER_13_261
*648 FILLER_13_27
*649 FILLER_13_273
*650 FILLER_13_279
*651 FILLER_13_281
*652 FILLER_13_293
*653 FILLER_13_43
*654 FILLER_13_52
*655 FILLER_13_69
*656 FILLER_13_83
*657 FILLER_13_93
*658 FILLER_14_106
*659 FILLER_14_11
*660 FILLER_14_132
*661 FILLER_14_141
*662 FILLER_14_153
*663 FILLER_14_165
*664 FILLER_14_171
*665 FILLER_14_183
*666 FILLER_14_195
*667 FILLER_14_197
*668 FILLER_14_209
*669 FILLER_14_221
*670 FILLER_14_233
*671 FILLER_14_24
*672 FILLER_14_245
*673 FILLER_14_251
*674 FILLER_14_253
*675 FILLER_14_265
*676 FILLER_14_277
*677 FILLER_14_289
*678 FILLER_14_297
*679 FILLER_14_37
*680 FILLER_14_53
*681 FILLER_14_69
*682 FILLER_14_80
*683 FILLER_14_93
*684 FILLER_15_103
*685 FILLER_15_111
*686 FILLER_15_119
*687 FILLER_15_130
*688 FILLER_15_138
*689 FILLER_15_142
*690 FILLER_15_147
*691 FILLER_15_159
*692 FILLER_15_167
*693 FILLER_15_169
*694 FILLER_15_181
*695 FILLER_15_19
*696 FILLER_15_193
*697 FILLER_15_205
*698 FILLER_15_217
*699 FILLER_15_223
*700 FILLER_15_225
*701 FILLER_15_23
*702 FILLER_15_237
*703 FILLER_15_249
*704 FILLER_15_261
*705 FILLER_15_273
*706 FILLER_15_279
*707 FILLER_15_281
*708 FILLER_15_293
*709 FILLER_15_36
*710 FILLER_15_52
*711 FILLER_15_61
*712 FILLER_15_77
*713 FILLER_15_91
*714 FILLER_16_109
*715 FILLER_16_121
*716 FILLER_16_136
*717 FILLER_16_141
*718 FILLER_16_149
*719 FILLER_16_160
*720 FILLER_16_168
*721 FILLER_16_180
*722 FILLER_16_192
*723 FILLER_16_197
*724 FILLER_16_209
*725 FILLER_16_21
*726 FILLER_16_221
*727 FILLER_16_233
*728 FILLER_16_245
*729 FILLER_16_251
*730 FILLER_16_253
*731 FILLER_16_265
*732 FILLER_16_27
*733 FILLER_16_277
*734 FILLER_16_289
*735 FILLER_16_297
*736 FILLER_16_3
*737 FILLER_16_41
*738 FILLER_16_65
*739 FILLER_16_79
*740 FILLER_16_83
*741 FILLER_16_97
*742 FILLER_17_105
*743 FILLER_17_111
*744 FILLER_17_116
*745 FILLER_17_128
*746 FILLER_17_138
*747 FILLER_17_147
*748 FILLER_17_155
*749 FILLER_17_167
*750 FILLER_17_169
*751 FILLER_17_180
*752 FILLER_17_192
*753 FILLER_17_204
*754 FILLER_17_216
*755 FILLER_17_225
*756 FILLER_17_237
*757 FILLER_17_249
*758 FILLER_17_261
*759 FILLER_17_273
*760 FILLER_17_279
*761 FILLER_17_28
*762 FILLER_17_281
*763 FILLER_17_293
*764 FILLER_17_36
*765 FILLER_17_52
*766 FILLER_17_69
*767 FILLER_17_8
*768 FILLER_17_93
*769 FILLER_18_104
*770 FILLER_18_120
*771 FILLER_18_131
*772 FILLER_18_139
*773 FILLER_18_146
*774 FILLER_18_161
*775 FILLER_18_169
*776 FILLER_18_181
*777 FILLER_18_19
*778 FILLER_18_193
*779 FILLER_18_197
*780 FILLER_18_209
*781 FILLER_18_221
*782 FILLER_18_233
*783 FILLER_18_245
*784 FILLER_18_251
*785 FILLER_18_253
*786 FILLER_18_265
*787 FILLER_18_27
*788 FILLER_18_277
*789 FILLER_18_289
*790 FILLER_18_297
*791 FILLER_18_41
*792 FILLER_18_65
*793 FILLER_18_71
*794 FILLER_18_80
*795 FILLER_18_88
*796 FILLER_19_103
*797 FILLER_19_111
*798 FILLER_19_121
*799 FILLER_19_135
*800 FILLER_19_145
*801 FILLER_19_159
*802 FILLER_19_167
*803 FILLER_19_176
*804 FILLER_19_187
*805 FILLER_19_20
*806 FILLER_19_201
*807 FILLER_19_213
*808 FILLER_19_221
*809 FILLER_19_225
*810 FILLER_19_237
*811 FILLER_19_249
*812 FILLER_19_261
*813 FILLER_19_273
*814 FILLER_19_279
*815 FILLER_19_281
*816 FILLER_19_293
*817 FILLER_19_3
*818 FILLER_19_40
*819 FILLER_19_52
*820 FILLER_19_65
*821 FILLER_19_81
*822 FILLER_19_89
*823 FILLER_1_105
*824 FILLER_1_111
*825 FILLER_1_113
*826 FILLER_1_125
*827 FILLER_1_137
*828 FILLER_1_149
*829 FILLER_1_161
*830 FILLER_1_167
*831 FILLER_1_169
*832 FILLER_1_181
*833 FILLER_1_19
*834 FILLER_1_193
*835 FILLER_1_205
*836 FILLER_1_217
*837 FILLER_1_223
*838 FILLER_1_225
*839 FILLER_1_237
*840 FILLER_1_249
*841 FILLER_1_261
*842 FILLER_1_273
*843 FILLER_1_279
*844 FILLER_1_281
*845 FILLER_1_293
*846 FILLER_1_31
*847 FILLER_1_43
*848 FILLER_1_55
*849 FILLER_1_57
*850 FILLER_1_69
*851 FILLER_1_81
*852 FILLER_1_93
*853 FILLER_20_113
*854 FILLER_20_129
*855 FILLER_20_136
*856 FILLER_20_147
*857 FILLER_20_156
*858 FILLER_20_163
*859 FILLER_20_170
*860 FILLER_20_182
*861 FILLER_20_19
*862 FILLER_20_194
*863 FILLER_20_197
*864 FILLER_20_209
*865 FILLER_20_221
*866 FILLER_20_23
*867 FILLER_20_233
*868 FILLER_20_245
*869 FILLER_20_251
*870 FILLER_20_253
*871 FILLER_20_265
*872 FILLER_20_27
*873 FILLER_20_277
*874 FILLER_20_289
*875 FILLER_20_297
*876 FILLER_20_41
*877 FILLER_20_65
*878 FILLER_20_77
*879 FILLER_20_83
*880 FILLER_20_97
*881 FILLER_21_105
*882 FILLER_21_111
*883 FILLER_21_119
*884 FILLER_21_12
*885 FILLER_21_123
*886 FILLER_21_130
*887 FILLER_21_137
*888 FILLER_21_147
*889 FILLER_21_157
*890 FILLER_21_164
*891 FILLER_21_176
*892 FILLER_21_188
*893 FILLER_21_200
*894 FILLER_21_212
*895 FILLER_21_225
*896 FILLER_21_237
*897 FILLER_21_249
*898 FILLER_21_261
*899 FILLER_21_273
*900 FILLER_21_279
*901 FILLER_21_281
*902 FILLER_21_293
*903 FILLER_21_3
*904 FILLER_21_36
*905 FILLER_21_52
*906 FILLER_21_69
*907 FILLER_21_93
*908 FILLER_22_109
*909 FILLER_22_123
*910 FILLER_22_134
*911 FILLER_22_141
*912 FILLER_22_150
*913 FILLER_22_161
*914 FILLER_22_168
*915 FILLER_22_175
*916 FILLER_22_182
*917 FILLER_22_192
*918 FILLER_22_197
*919 FILLER_22_209
*920 FILLER_22_221
*921 FILLER_22_233
*922 FILLER_22_24
*923 FILLER_22_245
*924 FILLER_22_251
*925 FILLER_22_253
*926 FILLER_22_265
*927 FILLER_22_277
*928 FILLER_22_289
*929 FILLER_22_297
*930 FILLER_22_3
*931 FILLER_22_45
*932 FILLER_22_69
*933 FILLER_22_80
*934 FILLER_22_85
*935 FILLER_23_105
*936 FILLER_23_111
*937 FILLER_23_12
*938 FILLER_23_125
*939 FILLER_23_131
*940 FILLER_23_140
*941 FILLER_23_144
*942 FILLER_23_151
*943 FILLER_23_160
*944 FILLER_23_176
*945 FILLER_23_183
*946 FILLER_23_195
*947 FILLER_23_207
*948 FILLER_23_219
*949 FILLER_23_223
*950 FILLER_23_225
*951 FILLER_23_237
*952 FILLER_23_249
*953 FILLER_23_261
*954 FILLER_23_273
*955 FILLER_23_279
*956 FILLER_23_281
*957 FILLER_23_293
*958 FILLER_23_3
*959 FILLER_23_36
*960 FILLER_23_52
*961 FILLER_23_69
*962 FILLER_23_93
*963 FILLER_24_109
*964 FILLER_24_125
*965 FILLER_24_135
*966 FILLER_24_139
*967 FILLER_24_146
*968 FILLER_24_155
*969 FILLER_24_163
*970 FILLER_24_170
*971 FILLER_24_177
*972 FILLER_24_187
*973 FILLER_24_195
*974 FILLER_24_197
*975 FILLER_24_209
*976 FILLER_24_221
*977 FILLER_24_233
*978 FILLER_24_24
*979 FILLER_24_245
*980 FILLER_24_251
*981 FILLER_24_253
*982 FILLER_24_265
*983 FILLER_24_277
*984 FILLER_24_289
*985 FILLER_24_29
*986 FILLER_24_297
*987 FILLER_24_3
*988 FILLER_24_65
*989 FILLER_24_69
*990 FILLER_24_7
*991 FILLER_24_80
*992 FILLER_24_93
*993 FILLER_25_105
*994 FILLER_25_111
*995 FILLER_25_125
*996 FILLER_25_137
*997 FILLER_25_147
*998 FILLER_25_153
*999 FILLER_25_159
*1000 FILLER_25_167
*1001 FILLER_25_169
*1002 FILLER_25_176
*1003 FILLER_25_184
*1004 FILLER_25_193
*1005 FILLER_25_205
*1006 FILLER_25_217
*1007 FILLER_25_223
*1008 FILLER_25_225
*1009 FILLER_25_23
*1010 FILLER_25_237
*1011 FILLER_25_249
*1012 FILLER_25_261
*1013 FILLER_25_273
*1014 FILLER_25_279
*1015 FILLER_25_281
*1016 FILLER_25_293
*1017 FILLER_25_3
*1018 FILLER_25_43
*1019 FILLER_25_52
*1020 FILLER_25_57
*1021 FILLER_25_81
*1022 FILLER_25_89
*1023 FILLER_26_121
*1024 FILLER_26_132
*1025 FILLER_26_148
*1026 FILLER_26_157
*1027 FILLER_26_165
*1028 FILLER_26_178
*1029 FILLER_26_185
*1030 FILLER_26_193
*1031 FILLER_26_197
*1032 FILLER_26_209
*1033 FILLER_26_21
*1034 FILLER_26_221
*1035 FILLER_26_233
*1036 FILLER_26_245
*1037 FILLER_26_251
*1038 FILLER_26_253
*1039 FILLER_26_265
*1040 FILLER_26_27
*1041 FILLER_26_277
*1042 FILLER_26_289
*1043 FILLER_26_297
*1044 FILLER_26_3
*1045 FILLER_26_41
*1046 FILLER_26_50
*1047 FILLER_26_74
*1048 FILLER_26_82
*1049 FILLER_26_97
*1050 FILLER_27_108
*1051 FILLER_27_125
*1052 FILLER_27_137
*1053 FILLER_27_147
*1054 FILLER_27_156
*1055 FILLER_27_164
*1056 FILLER_27_169
*1057 FILLER_27_182
*1058 FILLER_27_194
*1059 FILLER_27_206
*1060 FILLER_27_218
*1061 FILLER_27_225
*1062 FILLER_27_237
*1063 FILLER_27_249
*1064 FILLER_27_261
*1065 FILLER_27_27
*1066 FILLER_27_273
*1067 FILLER_27_279
*1068 FILLER_27_281
*1069 FILLER_27_293
*1070 FILLER_27_3
*1071 FILLER_27_31
*1072 FILLER_27_52
*1073 FILLER_27_57
*1074 FILLER_27_81
*1075 FILLER_27_87
*1076 FILLER_28_101
*1077 FILLER_28_117
*1078 FILLER_28_133
*1079 FILLER_28_139
*1080 FILLER_28_147
*1081 FILLER_28_156
*1082 FILLER_28_160
*1083 FILLER_28_168
*1084 FILLER_28_177
*1085 FILLER_28_190
*1086 FILLER_28_197
*1087 FILLER_28_209
*1088 FILLER_28_221
*1089 FILLER_28_233
*1090 FILLER_28_24
*1091 FILLER_28_245
*1092 FILLER_28_251
*1093 FILLER_28_253
*1094 FILLER_28_265
*1095 FILLER_28_277
*1096 FILLER_28_289
*1097 FILLER_28_29
*1098 FILLER_28_297
*1099 FILLER_28_3
*1100 FILLER_28_55
*1101 FILLER_28_79
*1102 FILLER_28_83
*1103 FILLER_28_85
*1104 FILLER_29_108
*1105 FILLER_29_12
*1106 FILLER_29_125
*1107 FILLER_29_139
*1108 FILLER_29_150
*1109 FILLER_29_164
*1110 FILLER_29_179
*1111 FILLER_29_188
*1112 FILLER_29_199
*1113 FILLER_29_211
*1114 FILLER_29_223
*1115 FILLER_29_225
*1116 FILLER_29_237
*1117 FILLER_29_249
*1118 FILLER_29_261
*1119 FILLER_29_273
*1120 FILLER_29_279
*1121 FILLER_29_281
*1122 FILLER_29_293
*1123 FILLER_29_3
*1124 FILLER_29_36
*1125 FILLER_29_52
*1126 FILLER_29_65
*1127 FILLER_29_81
*1128 FILLER_29_97
*1129 FILLER_2_109
*1130 FILLER_2_121
*1131 FILLER_2_133
*1132 FILLER_2_139
*1133 FILLER_2_141
*1134 FILLER_2_153
*1135 FILLER_2_165
*1136 FILLER_2_177
*1137 FILLER_2_189
*1138 FILLER_2_195
*1139 FILLER_2_197
*1140 FILLER_2_209
*1141 FILLER_2_221
*1142 FILLER_2_233
*1143 FILLER_2_24
*1144 FILLER_2_245
*1145 FILLER_2_251
*1146 FILLER_2_253
*1147 FILLER_2_265
*1148 FILLER_2_277
*1149 FILLER_2_289
*1150 FILLER_2_29
*1151 FILLER_2_297
*1152 FILLER_2_3
*1153 FILLER_2_51
*1154 FILLER_2_63
*1155 FILLER_2_7
*1156 FILLER_2_75
*1157 FILLER_2_83
*1158 FILLER_2_85
*1159 FILLER_2_97
*1160 FILLER_30_105
*1161 FILLER_30_117
*1162 FILLER_30_131
*1163 FILLER_30_139
*1164 FILLER_30_146
*1165 FILLER_30_156
*1166 FILLER_30_164
*1167 FILLER_30_171
*1168 FILLER_30_178
*1169 FILLER_30_185
*1170 FILLER_30_193
*1171 FILLER_30_204
*1172 FILLER_30_216
*1173 FILLER_30_228
*1174 FILLER_30_24
*1175 FILLER_30_240
*1176 FILLER_30_253
*1177 FILLER_30_265
*1178 FILLER_30_277
*1179 FILLER_30_289
*1180 FILLER_30_297
*1181 FILLER_30_3
*1182 FILLER_30_41
*1183 FILLER_30_65
*1184 FILLER_30_77
*1185 FILLER_30_83
*1186 FILLER_30_89
*1187 FILLER_31_105
*1188 FILLER_31_111
*1189 FILLER_31_12
*1190 FILLER_31_121
*1191 FILLER_31_136
*1192 FILLER_31_145
*1193 FILLER_31_153
*1194 FILLER_31_161
*1195 FILLER_31_167
*1196 FILLER_31_175
*1197 FILLER_31_183
*1198 FILLER_31_195
*1199 FILLER_31_207
*1200 FILLER_31_219
*1201 FILLER_31_223
*1202 FILLER_31_225
*1203 FILLER_31_237
*1204 FILLER_31_249
*1205 FILLER_31_261
*1206 FILLER_31_273
*1207 FILLER_31_279
*1208 FILLER_31_281
*1209 FILLER_31_293
*1210 FILLER_31_36
*1211 FILLER_31_52
*1212 FILLER_31_69
*1213 FILLER_31_93
*1214 FILLER_32_109
*1215 FILLER_32_125
*1216 FILLER_32_135
*1217 FILLER_32_139
*1218 FILLER_32_149
*1219 FILLER_32_159
*1220 FILLER_32_166
*1221 FILLER_32_173
*1222 FILLER_32_185
*1223 FILLER_32_193
*1224 FILLER_32_197
*1225 FILLER_32_209
*1226 FILLER_32_221
*1227 FILLER_32_233
*1228 FILLER_32_24
*1229 FILLER_32_245
*1230 FILLER_32_251
*1231 FILLER_32_253
*1232 FILLER_32_265
*1233 FILLER_32_277
*1234 FILLER_32_289
*1235 FILLER_32_29
*1236 FILLER_32_297
*1237 FILLER_32_3
*1238 FILLER_32_35
*1239 FILLER_32_59
*1240 FILLER_32_67
*1241 FILLER_32_80
*1242 FILLER_32_85
*1243 FILLER_33_108
*1244 FILLER_33_120
*1245 FILLER_33_127
*1246 FILLER_33_131
*1247 FILLER_33_139
*1248 FILLER_33_143
*1249 FILLER_33_148
*1250 FILLER_33_156
*1251 FILLER_33_163
*1252 FILLER_33_167
*1253 FILLER_33_169
*1254 FILLER_33_181
*1255 FILLER_33_19
*1256 FILLER_33_193
*1257 FILLER_33_205
*1258 FILLER_33_217
*1259 FILLER_33_223
*1260 FILLER_33_225
*1261 FILLER_33_23
*1262 FILLER_33_237
*1263 FILLER_33_249
*1264 FILLER_33_261
*1265 FILLER_33_273
*1266 FILLER_33_279
*1267 FILLER_33_281
*1268 FILLER_33_293
*1269 FILLER_33_32
*1270 FILLER_33_48
*1271 FILLER_33_69
*1272 FILLER_33_83
*1273 FILLER_33_99
*1274 FILLER_34_103
*1275 FILLER_34_108
*1276 FILLER_34_116
*1277 FILLER_34_121
*1278 FILLER_34_13
*1279 FILLER_34_132
*1280 FILLER_34_148
*1281 FILLER_34_152
*1282 FILLER_34_158
*1283 FILLER_34_170
*1284 FILLER_34_182
*1285 FILLER_34_194
*1286 FILLER_34_197
*1287 FILLER_34_209
*1288 FILLER_34_21
*1289 FILLER_34_221
*1290 FILLER_34_233
*1291 FILLER_34_245
*1292 FILLER_34_251
*1293 FILLER_34_253
*1294 FILLER_34_265
*1295 FILLER_34_27
*1296 FILLER_34_277
*1297 FILLER_34_289
*1298 FILLER_34_297
*1299 FILLER_34_41
*1300 FILLER_34_45
*1301 FILLER_34_51
*1302 FILLER_34_75
*1303 FILLER_34_83
*1304 FILLER_34_85
*1305 FILLER_34_99
*1306 FILLER_35_108
*1307 FILLER_35_12
*1308 FILLER_35_121
*1309 FILLER_35_130
*1310 FILLER_35_138
*1311 FILLER_35_142
*1312 FILLER_35_146
*1313 FILLER_35_152
*1314 FILLER_35_163
*1315 FILLER_35_167
*1316 FILLER_35_169
*1317 FILLER_35_181
*1318 FILLER_35_185
*1319 FILLER_35_189
*1320 FILLER_35_201
*1321 FILLER_35_213
*1322 FILLER_35_221
*1323 FILLER_35_225
*1324 FILLER_35_237
*1325 FILLER_35_249
*1326 FILLER_35_261
*1327 FILLER_35_273
*1328 FILLER_35_279
*1329 FILLER_35_281
*1330 FILLER_35_293
*1331 FILLER_35_36
*1332 FILLER_35_52
*1333 FILLER_35_65
*1334 FILLER_35_81
*1335 FILLER_35_85
*1336 FILLER_35_98
*1337 FILLER_36_107
*1338 FILLER_36_115
*1339 FILLER_36_122
*1340 FILLER_36_133
*1341 FILLER_36_139
*1342 FILLER_36_148
*1343 FILLER_36_154
*1344 FILLER_36_163
*1345 FILLER_36_175
*1346 FILLER_36_187
*1347 FILLER_36_195
*1348 FILLER_36_197
*1349 FILLER_36_209
*1350 FILLER_36_221
*1351 FILLER_36_233
*1352 FILLER_36_24
*1353 FILLER_36_245
*1354 FILLER_36_251
*1355 FILLER_36_253
*1356 FILLER_36_265
*1357 FILLER_36_277
*1358 FILLER_36_289
*1359 FILLER_36_297
*1360 FILLER_36_3
*1361 FILLER_36_41
*1362 FILLER_36_65
*1363 FILLER_36_77
*1364 FILLER_36_8
*1365 FILLER_36_83
*1366 FILLER_36_95
*1367 FILLER_37_103
*1368 FILLER_37_108
*1369 FILLER_37_12
*1370 FILLER_37_123
*1371 FILLER_37_130
*1372 FILLER_37_142
*1373 FILLER_37_148
*1374 FILLER_37_160
*1375 FILLER_37_169
*1376 FILLER_37_183
*1377 FILLER_37_195
*1378 FILLER_37_20
*1379 FILLER_37_207
*1380 FILLER_37_219
*1381 FILLER_37_223
*1382 FILLER_37_225
*1383 FILLER_37_237
*1384 FILLER_37_249
*1385 FILLER_37_261
*1386 FILLER_37_273
*1387 FILLER_37_279
*1388 FILLER_37_281
*1389 FILLER_37_293
*1390 FILLER_37_41
*1391 FILLER_37_49
*1392 FILLER_37_55
*1393 FILLER_37_57
*1394 FILLER_37_61
*1395 FILLER_37_77
*1396 FILLER_37_85
*1397 FILLER_37_97
*1398 FILLER_38_104
*1399 FILLER_38_116
*1400 FILLER_38_124
*1401 FILLER_38_136
*1402 FILLER_38_141
*1403 FILLER_38_150
*1404 FILLER_38_169
*1405 FILLER_38_181
*1406 FILLER_38_193
*1407 FILLER_38_197
*1408 FILLER_38_209
*1409 FILLER_38_221
*1410 FILLER_38_233
*1411 FILLER_38_24
*1412 FILLER_38_245
*1413 FILLER_38_251
*1414 FILLER_38_253
*1415 FILLER_38_265
*1416 FILLER_38_277
*1417 FILLER_38_289
*1418 FILLER_38_297
*1419 FILLER_38_3
*1420 FILLER_38_41
*1421 FILLER_38_53
*1422 FILLER_38_69
*1423 FILLER_38_78
*1424 FILLER_38_8
*1425 FILLER_38_85
*1426 FILLER_38_89
*1427 FILLER_38_96
*1428 FILLER_39_108
*1429 FILLER_39_123
*1430 FILLER_39_131
*1431 FILLER_39_141
*1432 FILLER_39_153
*1433 FILLER_39_158
*1434 FILLER_39_166
*1435 FILLER_39_169
*1436 FILLER_39_181
*1437 FILLER_39_193
*1438 FILLER_39_205
*1439 FILLER_39_217
*1440 FILLER_39_223
*1441 FILLER_39_225
*1442 FILLER_39_237
*1443 FILLER_39_249
*1444 FILLER_39_261
*1445 FILLER_39_273
*1446 FILLER_39_279
*1447 FILLER_39_281
*1448 FILLER_39_293
*1449 FILLER_39_3
*1450 FILLER_39_32
*1451 FILLER_39_48
*1452 FILLER_39_69
*1453 FILLER_39_79
*1454 FILLER_39_8
*1455 FILLER_39_87
*1456 FILLER_39_96
*1457 FILLER_3_105
*1458 FILLER_3_111
*1459 FILLER_3_113
*1460 FILLER_3_125
*1461 FILLER_3_13
*1462 FILLER_3_137
*1463 FILLER_3_149
*1464 FILLER_3_161
*1465 FILLER_3_167
*1466 FILLER_3_169
*1467 FILLER_3_181
*1468 FILLER_3_19
*1469 FILLER_3_193
*1470 FILLER_3_205
*1471 FILLER_3_217
*1472 FILLER_3_223
*1473 FILLER_3_225
*1474 FILLER_3_23
*1475 FILLER_3_237
*1476 FILLER_3_249
*1477 FILLER_3_261
*1478 FILLER_3_273
*1479 FILLER_3_279
*1480 FILLER_3_281
*1481 FILLER_3_293
*1482 FILLER_3_35
*1483 FILLER_3_47
*1484 FILLER_3_55
*1485 FILLER_3_57
*1486 FILLER_3_6
*1487 FILLER_3_69
*1488 FILLER_3_81
*1489 FILLER_3_93
*1490 FILLER_40_101
*1491 FILLER_40_113
*1492 FILLER_40_118
*1493 FILLER_40_127
*1494 FILLER_40_13
*1495 FILLER_40_139
*1496 FILLER_40_144
*1497 FILLER_40_156
*1498 FILLER_40_168
*1499 FILLER_40_180
*1500 FILLER_40_192
*1501 FILLER_40_197
*1502 FILLER_40_209
*1503 FILLER_40_21
*1504 FILLER_40_221
*1505 FILLER_40_233
*1506 FILLER_40_245
*1507 FILLER_40_251
*1508 FILLER_40_253
*1509 FILLER_40_265
*1510 FILLER_40_27
*1511 FILLER_40_277
*1512 FILLER_40_289
*1513 FILLER_40_29
*1514 FILLER_40_297
*1515 FILLER_40_3
*1516 FILLER_40_44
*1517 FILLER_40_48
*1518 FILLER_40_54
*1519 FILLER_40_64
*1520 FILLER_40_73
*1521 FILLER_40_81
*1522 FILLER_40_85
*1523 FILLER_40_91
*1524 FILLER_41_108
*1525 FILLER_41_121
*1526 FILLER_41_129
*1527 FILLER_41_137
*1528 FILLER_41_145
*1529 FILLER_41_150
*1530 FILLER_41_162
*1531 FILLER_41_169
*1532 FILLER_41_181
*1533 FILLER_41_193
*1534 FILLER_41_205
*1535 FILLER_41_217
*1536 FILLER_41_223
*1537 FILLER_41_225
*1538 FILLER_41_237
*1539 FILLER_41_249
*1540 FILLER_41_261
*1541 FILLER_41_27
*1542 FILLER_41_273
*1543 FILLER_41_279
*1544 FILLER_41_281
*1545 FILLER_41_293
*1546 FILLER_41_3
*1547 FILLER_41_43
*1548 FILLER_41_50
*1549 FILLER_41_57
*1550 FILLER_41_67
*1551 FILLER_41_76
*1552 FILLER_41_82
*1553 FILLER_41_89
*1554 FILLER_41_95
*1555 FILLER_41_99
*1556 FILLER_42_101
*1557 FILLER_42_109
*1558 FILLER_42_114
*1559 FILLER_42_120
*1560 FILLER_42_126
*1561 FILLER_42_13
*1562 FILLER_42_136
*1563 FILLER_42_141
*1564 FILLER_42_149
*1565 FILLER_42_161
*1566 FILLER_42_173
*1567 FILLER_42_185
*1568 FILLER_42_193
*1569 FILLER_42_197
*1570 FILLER_42_209
*1571 FILLER_42_221
*1572 FILLER_42_233
*1573 FILLER_42_24
*1574 FILLER_42_245
*1575 FILLER_42_251
*1576 FILLER_42_253
*1577 FILLER_42_265
*1578 FILLER_42_277
*1579 FILLER_42_289
*1580 FILLER_42_297
*1581 FILLER_42_3
*1582 FILLER_42_37
*1583 FILLER_42_51
*1584 FILLER_42_58
*1585 FILLER_42_64
*1586 FILLER_42_73
*1587 FILLER_42_80
*1588 FILLER_42_89
*1589 FILLER_43_106
*1590 FILLER_43_122
*1591 FILLER_43_13
*1592 FILLER_43_134
*1593 FILLER_43_146
*1594 FILLER_43_158
*1595 FILLER_43_166
*1596 FILLER_43_169
*1597 FILLER_43_181
*1598 FILLER_43_193
*1599 FILLER_43_205
*1600 FILLER_43_217
*1601 FILLER_43_223
*1602 FILLER_43_225
*1603 FILLER_43_237
*1604 FILLER_43_249
*1605 FILLER_43_25
*1606 FILLER_43_261
*1607 FILLER_43_273
*1608 FILLER_43_279
*1609 FILLER_43_281
*1610 FILLER_43_293
*1611 FILLER_43_3
*1612 FILLER_43_32
*1613 FILLER_43_44
*1614 FILLER_43_57
*1615 FILLER_43_69
*1616 FILLER_43_78
*1617 FILLER_43_89
*1618 FILLER_43_95
*1619 FILLER_44_102
*1620 FILLER_44_110
*1621 FILLER_44_12
*1622 FILLER_44_124
*1623 FILLER_44_136
*1624 FILLER_44_146
*1625 FILLER_44_158
*1626 FILLER_44_170
*1627 FILLER_44_182
*1628 FILLER_44_19
*1629 FILLER_44_194
*1630 FILLER_44_197
*1631 FILLER_44_209
*1632 FILLER_44_221