*SPEF "ieee 1481-1999"
*DESIGN "davidsiaw_stackcalc"
*DATE "11:11:11 Fri 11 11, 1111"
*VENDOR "OpenRCX"
*PROGRAM "Parallel Extraction"
*VERSION "1.0"
*DESIGN_FLOW "NAME_SCOPE LOCAL" "PIN_CAP NONE"
*DIVIDER /
*DELIMITER :
*BUS_DELIMITER []
*T_UNIT 1 NS
*C_UNIT 1 PF
*R_UNIT 1 OHM
*L_UNIT 1 HENRY

*NAME_MAP
*1 io_in[0]
*2 io_in[1]
*3 io_in[2]
*4 io_in[3]
*5 io_in[4]
*6 io_in[5]
*7 io_in[6]
*8 io_in[7]
*9 io_out[0]
*10 io_out[1]
*11 io_out[2]
*12 io_out[3]
*13 io_out[4]
*14 io_out[5]
*15 io_out[6]
*16 io_out[7]
*19 _0000_
*20 _0001_
*21 _0002_
*22 _0003_
*23 _0004_
*24 _0005_
*25 _0006_
*26 _0007_
*27 _0008_
*28 _0009_
*29 _0010_
*30 _0011_
*31 _0012_
*32 _0013_
*33 _0014_
*34 _0015_
*35 _0016_
*36 _0017_
*37 _0018_
*38 _0019_
*39 _0020_
*40 _0021_
*41 _0022_
*42 _0023_
*43 _0024_
*44 _0025_
*45 _0026_
*46 _0027_
*47 _0028_
*48 _0029_
*49 _0030_
*50 _0031_
*51 _0032_
*52 _0033_
*53 _0034_
*54 _0035_
*55 _0036_
*56 _0037_
*57 _0038_
*58 _0039_
*59 _0040_
*60 _0041_
*61 _0042_
*62 _0043_
*63 _0044_
*64 _0045_
*65 _0046_
*66 _0047_
*67 _0048_
*68 _0049_
*69 _0050_
*70 _0051_
*71 _0052_
*72 _0053_
*73 _0054_
*74 _0055_
*75 _0056_
*76 _0057_
*77 _0058_
*78 _0059_
*79 _0060_
*80 _0061_
*81 _0062_
*82 _0063_
*83 _0064_
*84 _0065_
*85 _0066_
*86 _0067_
*87 _0068_
*88 _0069_
*89 _0070_
*90 _0071_
*91 _0072_
*92 _0073_
*93 _0074_
*94 _0075_
*95 _0076_
*96 _0077_
*97 _0078_
*98 _0079_
*99 _0080_
*100 _0081_
*101 _0082_
*102 _0083_
*103 _0084_
*104 _0085_
*105 _0086_
*106 _0087_
*107 _0088_
*108 _0089_
*109 _0090_
*110 _0091_
*111 _0092_
*112 _0093_
*113 _0094_
*114 _0095_
*115 _0096_
*116 _0097_
*117 _0098_
*118 _0099_
*119 _0100_
*120 _0101_
*121 _0102_
*122 _0103_
*123 _0104_
*124 _0105_
*125 _0106_
*126 _0107_
*127 _0108_
*128 _0109_
*129 _0110_
*130 _0111_
*131 _0112_
*132 _0113_
*133 _0114_
*134 _0115_
*135 _0116_
*136 _0117_
*137 _0118_
*138 _0119_
*139 _0120_
*140 _0121_
*141 _0122_
*142 _0123_
*143 _0124_
*144 _0125_
*145 _0126_
*146 _0127_
*147 _0128_
*148 _0129_
*149 _0130_
*150 _0131_
*151 _0132_
*152 _0133_
*153 _0134_
*154 _0135_
*155 _0136_
*156 _0137_
*157 _0138_
*158 _0139_
*159 _0140_
*160 _0141_
*161 _0142_
*162 _0143_
*163 _0144_
*164 _0145_
*165 _0146_
*166 _0147_
*167 _0148_
*168 _0149_
*169 _0150_
*170 _0151_
*171 _0152_
*172 _0153_
*173 _0154_
*174 _0155_
*175 _0156_
*176 _0157_
*177 _0158_
*178 _0159_
*179 _0160_
*180 _0161_
*181 _0162_
*182 _0163_
*183 _0164_
*184 _0165_
*185 _0166_
*186 _0167_
*187 _0168_
*188 _0169_
*189 _0170_
*190 _0171_
*191 _0172_
*192 _0173_
*193 _0174_
*194 _0175_
*195 _0176_
*196 _0177_
*197 _0178_
*198 _0179_
*199 _0180_
*200 _0181_
*201 _0182_
*202 _0183_
*203 _0184_
*204 _0185_
*205 _0186_
*206 _0187_
*207 _0188_
*208 _0189_
*209 _0190_
*210 _0191_
*211 _0192_
*212 _0193_
*213 _0194_
*214 _0195_
*215 _0196_
*216 _0197_
*217 _0198_
*218 _0199_
*219 _0200_
*220 _0201_
*221 _0202_
*222 _0203_
*223 _0204_
*224 _0205_
*225 _0206_
*226 _0207_
*227 _0208_
*228 _0209_
*229 _0210_
*230 _0211_
*231 _0212_
*232 _0213_
*233 _0214_
*234 _0215_
*235 _0216_
*236 _0217_
*237 _0218_
*238 _0219_
*239 _0220_
*240 _0221_
*241 _0222_
*242 _0223_
*243 _0224_
*244 _0225_
*245 _0226_
*246 _0227_
*247 _0228_
*248 _0229_
*249 _0230_
*250 _0231_
*251 _0232_
*252 _0233_
*253 _0234_
*254 _0235_
*255 _0236_
*256 _0237_
*257 _0238_
*258 _0239_
*259 _0240_
*260 _0241_
*261 _0242_
*262 _0243_
*263 _0244_
*264 _0245_
*265 _0246_
*266 _0247_
*267 _0248_
*268 _0249_
*269 _0250_
*270 _0251_
*271 _0252_
*272 _0253_
*273 _0254_
*274 _0255_
*275 _0256_
*276 _0257_
*277 _0258_
*278 _0259_
*279 _0260_
*280 _0261_
*281 _0262_
*282 _0263_
*283 _0264_
*284 _0265_
*285 _0266_
*286 _0267_
*287 _0268_
*288 _0269_
*289 _0270_
*290 _0271_
*291 _0272_
*292 _0273_
*293 _0274_
*294 _0275_
*295 _0276_
*296 _0277_
*297 _0278_
*298 _0279_
*299 _0280_
*300 _0281_
*301 _0282_
*302 _0283_
*303 _0284_
*304 _0285_
*305 _0286_
*306 _0287_
*307 _0288_
*308 _0289_
*309 _0290_
*310 _0291_
*311 _0292_
*312 _0293_
*313 _0294_
*314 _0295_
*315 _0296_
*316 _0297_
*317 _0298_
*318 _0299_
*319 _0300_
*320 _0301_
*321 _0302_
*322 _0303_
*323 _0304_
*324 _0305_
*325 _0306_
*326 _0307_
*327 _0308_
*328 _0309_
*329 _0310_
*330 _0311_
*331 _0312_
*332 _0313_
*333 _0314_
*334 _0315_
*335 _0316_
*336 _0317_
*337 _0318_
*338 _0319_
*339 _0320_
*340 _0321_
*341 _0322_
*342 _0323_
*343 _0324_
*344 _0325_
*345 _0326_
*346 _0327_
*347 _0328_
*348 _0329_
*349 _0330_
*350 _0331_
*351 _0332_
*352 _0333_
*353 _0334_
*354 _0335_
*355 _0336_
*356 _0337_
*357 _0338_
*358 _0339_
*359 _0340_
*360 _0341_
*361 _0342_
*362 _0343_
*363 _0344_
*364 _0345_
*365 _0346_
*366 _0347_
*367 _0348_
*368 _0349_
*369 _0350_
*370 _0351_
*371 _0352_
*372 _0353_
*373 _0354_
*374 _0355_
*375 _0356_
*376 _0357_
*377 _0358_
*378 _0359_
*379 _0360_
*380 _0361_
*381 _0362_
*382 _0363_
*383 _0364_
*384 _0365_
*385 _0366_
*386 _0367_
*387 _0368_
*388 _0369_
*389 _0370_
*390 _0371_
*391 _0372_
*392 _0373_
*393 _0374_
*394 _0375_
*395 _0376_
*396 _0377_
*397 _0378_
*398 _0379_
*399 _0380_
*400 _0381_
*401 _0382_
*402 _0383_
*403 _0384_
*404 _0385_
*405 _0386_
*406 _0387_
*407 _0388_
*408 _0389_
*409 _0390_
*410 _0391_
*411 _0392_
*412 _0393_
*413 _0394_
*414 _0395_
*415 _0396_
*416 _0397_
*417 _0398_
*418 _0399_
*419 _0400_
*420 _0401_
*421 _0402_
*422 _0403_
*423 _0404_
*424 _0405_
*425 _0406_
*426 _0407_
*427 _0408_
*428 _0409_
*429 _0410_
*430 _0411_
*431 _0412_
*432 _0413_
*433 _0414_
*434 _0415_
*435 _0416_
*436 _0417_
*437 _0418_
*438 _0419_
*439 _0420_
*440 _0421_
*441 _0422_
*442 _0423_
*443 _0424_
*444 _0425_
*445 _0426_
*446 _0427_
*447 _0428_
*448 _0429_
*449 _0430_
*450 _0431_
*451 _0432_
*452 _0433_
*453 _0434_
*454 _0435_
*455 _0436_
*456 _0437_
*457 _0438_
*458 _0439_
*459 _0440_
*460 _0441_
*461 _0442_
*462 _0443_
*463 _0444_
*464 _0445_
*465 _0446_
*466 _0447_
*467 _0448_
*468 _0449_
*469 _0450_
*470 _0451_
*471 _0452_
*472 _0453_
*473 _0454_
*474 _0455_
*475 _0456_
*476 _0457_
*477 _0458_
*478 _0459_
*479 _0460_
*480 _0461_
*481 _0462_
*482 _0463_
*483 _0464_
*484 _0465_
*485 _0466_
*486 _0467_
*487 _0468_
*488 _0469_
*489 _0470_
*490 _0471_
*491 _0472_
*492 _0473_
*493 _0474_
*494 _0475_
*495 _0476_
*496 _0477_
*497 _0478_
*498 _0479_
*499 _0480_
*500 _0481_
*501 _0482_
*502 _0483_
*503 _0484_
*504 _0485_
*505 _0486_
*506 _0487_
*507 _0488_
*508 _0489_
*509 _0490_
*510 _0491_
*511 _0492_
*512 _0493_
*513 _0494_
*514 _0495_
*515 _0496_
*516 _0497_
*517 _0498_
*518 _0499_
*519 _0500_
*520 _0501_
*521 _0502_
*522 _0503_
*523 _0504_
*524 _0505_
*525 _0506_
*526 _0507_
*527 _0508_
*528 _0509_
*529 _0510_
*530 _0511_
*531 _0512_
*532 _0513_
*533 _0514_
*534 _0515_
*535 _0516_
*536 _0517_
*537 _0518_
*538 _0519_
*539 _0520_
*540 _0521_
*541 _0522_
*542 _0523_
*543 _0524_
*544 _0525_
*545 _0526_
*546 _0527_
*547 _0528_
*548 _0529_
*549 _0530_
*550 _0531_
*551 _0532_
*552 _0533_
*553 _0534_
*554 _0535_
*555 _0536_
*556 _0537_
*557 _0538_
*558 _0539_
*559 _0540_
*560 _0541_
*561 _0542_
*562 _0543_
*563 _0544_
*564 _0545_
*565 _0546_
*566 _0547_
*567 _0548_
*568 _0549_
*569 _0550_
*570 _0551_
*571 _0552_
*572 _0553_
*573 _0554_
*574 _0555_
*575 _0556_
*576 _0557_
*577 _0558_
*578 _0559_
*579 _0560_
*580 _0561_
*581 _0562_
*582 _0563_
*583 _0564_
*584 _0565_
*585 _0566_
*586 _0567_
*587 _0568_
*588 _0569_
*589 _0570_
*590 _0571_
*591 _0572_
*592 _0573_
*593 _0574_
*594 _0575_
*595 _0576_
*596 _0577_
*597 _0578_
*598 _0579_
*599 _0580_
*600 _0581_
*601 _0582_
*602 _0583_
*603 _0584_
*604 _0585_
*605 _0586_
*606 _0587_
*607 _0588_
*608 _0589_
*609 _0590_
*610 _0591_
*611 _0592_
*612 _0593_
*613 _0594_
*614 _0595_
*615 _0596_
*616 _0597_
*617 _0598_
*618 _0599_
*619 _0600_
*620 _0601_
*621 _0602_
*622 _0603_
*623 _0604_
*624 _0605_
*625 _0606_
*626 _0607_
*627 _0608_
*628 _0609_
*629 _0610_
*630 _0611_
*631 _0612_
*632 _0613_
*633 _0614_
*634 _0615_
*635 _0616_
*636 _0617_
*637 _0618_
*638 _0619_
*639 _0620_
*640 _0621_
*641 _0622_
*642 _0623_
*643 _0624_
*644 _0625_
*645 _0626_
*646 _0627_
*647 _0628_
*648 _0629_
*649 _0630_
*650 _0631_
*651 _0632_
*652 _0633_
*653 _0634_
*654 _0635_
*655 _0636_
*656 _0637_
*657 _0638_
*658 _0639_
*659 _0640_
*660 _0641_
*661 _0642_
*662 _0643_
*663 _0644_
*664 _0645_
*665 _0646_
*666 _0647_
*667 _0648_
*668 _0649_
*669 _0650_
*670 _0651_
*671 _0652_
*672 _0653_
*673 _0654_
*674 _0655_
*675 _0656_
*676 _0657_
*677 _0658_
*678 _0659_
*679 _0660_
*680 _0661_
*681 _0662_
*682 _0663_
*683 _0664_
*684 _0665_
*685 _0666_
*686 _0667_
*687 _0668_
*688 _0669_
*689 _0670_
*690 _0671_
*691 _0672_
*692 _0673_
*693 _0674_
*694 _0675_
*695 _0676_
*696 _0677_
*697 _0678_
*698 _0679_
*699 _0680_
*700 _0681_
*701 _0682_
*702 _0683_
*703 _0684_
*704 _0685_
*705 _0686_
*706 _0687_
*707 _0688_
*708 _0689_
*709 _0690_
*710 _0691_
*711 _0692_
*712 _0693_
*713 _0694_
*714 _0695_
*715 _0696_
*716 _0697_
*717 _0698_
*718 _0699_
*719 _0700_
*720 _0701_
*721 _0702_
*722 _0703_
*723 _0704_
*724 _0705_
*725 _0706_
*726 _0707_
*727 _0708_
*728 _0709_
*729 _0710_
*730 _0711_
*731 _0712_
*732 _0713_
*733 _0714_
*734 _0715_
*735 _0716_
*736 _0717_
*737 _0718_
*738 _0719_
*739 _0720_
*740 _0721_
*741 _0722_
*742 _0723_
*743 _0724_
*744 _0725_
*745 _0726_
*746 _0727_
*747 _0728_
*748 _0729_
*749 _0730_
*750 _0731_
*751 _0732_
*752 _0733_
*753 _0734_
*754 _0735_
*755 _0736_
*756 _0737_
*757 _0738_
*758 _0739_
*759 _0740_
*760 _0741_
*761 _0742_
*762 _0743_
*763 _0744_
*764 _0745_
*765 _0746_
*766 _0747_
*767 _0748_
*768 _0749_
*769 _0750_
*770 _0751_
*771 _0752_
*772 _0753_
*773 _0754_
*774 _0755_
*775 _0756_
*776 _0757_
*777 _0758_
*778 _0759_
*779 _0760_
*780 _0761_
*781 _0762_
*782 _0763_
*783 _0764_
*784 _0765_
*785 _0766_
*786 _0767_
*787 _0768_
*788 _0769_
*789 _0770_
*790 _0771_
*791 _0772_
*792 _0773_
*793 _0774_
*794 _0775_
*795 _0776_
*796 _0777_
*797 _0778_
*798 _0779_
*799 _0780_
*800 _0781_
*801 _0782_
*802 _0783_
*803 _0784_
*804 _0785_
*805 _0786_
*806 _0787_
*807 _0788_
*808 _0789_
*809 _0790_
*810 _0791_
*811 _0792_
*812 _0793_
*813 _0794_
*814 _0795_
*815 _0796_
*816 _0797_
*817 _0798_
*818 _0799_
*819 _0800_
*820 _0801_
*821 _0802_
*822 _0803_
*823 _0804_
*824 _0805_
*825 _0806_
*826 _0807_
*827 _0808_
*828 _0809_
*829 _0810_
*830 _0811_
*831 _0812_
*832 _0813_
*833 _0814_
*834 _0815_
*835 _0816_
*836 _0817_
*837 _0818_
*838 _0819_
*839 _0820_
*840 _0821_
*841 _0822_
*842 _0823_
*843 _0824_
*844 _0825_
*845 _0826_
*846 _0827_
*847 _0828_
*848 _0829_
*849 _0830_
*850 _0831_
*851 _0832_
*852 _0833_
*853 _0834_
*854 _0835_
*855 _0836_
*856 _0837_
*857 _0838_
*858 _0839_
*859 _0840_
*860 _0841_
*861 _0842_
*862 _0843_
*863 _0844_
*864 _0845_
*865 _0846_
*866 _0847_
*867 _0848_
*868 _0849_
*869 _0850_
*870 _0851_
*871 _0852_
*872 _0853_
*873 _0854_
*874 _0855_
*875 _0856_
*876 _0857_
*877 _0858_
*878 _0859_
*879 _0860_
*880 _0861_
*881 _0862_
*882 _0863_
*883 _0864_
*884 _0865_
*885 _0866_
*886 _0867_
*887 _0868_
*888 _0869_
*889 _0870_
*890 _0871_
*891 _0872_
*892 _0873_
*893 _0874_
*894 _0875_
*895 _0876_
*896 _0877_
*897 _0878_
*898 _0879_
*899 _0880_
*900 _0881_
*901 _0882_
*902 _0883_
*903 _0884_
*904 _0885_
*905 _0886_
*906 _0887_
*907 _0888_
*908 _0889_
*909 _0890_
*910 _0891_
*911 _0892_
*912 _0893_
*913 _0894_
*914 _0895_
*915 _0896_
*916 _0897_
*917 _0898_
*918 _0899_
*919 _0900_
*920 _0901_
*921 _0902_
*922 _0903_
*923 _0904_
*924 _0905_
*925 _0906_
*926 _0907_
*927 _0908_
*928 _0909_
*929 _0910_
*930 _0911_
*931 _0912_
*932 _0913_
*933 _0914_
*934 _0915_
*935 _0916_
*936 _0917_
*937 _0918_
*938 _0919_
*939 _0920_
*940 _0921_
*941 _0922_
*942 _0923_
*943 _0924_
*944 _0925_
*945 _0926_
*946 _0927_
*947 _0928_
*948 _0929_
*949 _0930_
*950 _0931_
*951 _0932_
*952 _0933_
*953 _0934_
*954 _0935_
*955 _0936_
*956 _0937_
*957 _0938_
*958 _0939_
*959 _0940_
*960 _0941_
*961 _0942_
*962 _0943_
*963 _0944_
*964 _0945_
*965 _0946_
*966 _0947_
*967 _0948_
*968 _0949_
*969 _0950_
*970 _0951_
*971 _0952_
*972 _0953_
*973 _0954_
*974 _0955_
*975 _0956_
*976 _0957_
*977 _0958_
*978 _0959_
*979 _0960_
*980 _0961_
*981 _0962_
*982 _0963_
*983 _0964_
*984 _0965_
*985 _0966_
*986 _0967_
*987 _0968_
*988 _0969_
*989 _0970_
*990 _0971_
*991 _0972_
*992 _0973_
*993 _0974_
*994 _0975_
*995 _0976_
*996 _0977_
*997 _0978_
*998 _0979_
*999 _0980_
*1000 _0981_
*1001 _0982_
*1002 _0983_
*1003 _0984_
*1004 _0985_
*1005 _0986_
*1006 _0987_
*1007 _0988_
*1008 _0989_
*1009 _0990_
*1010 _0991_
*1011 _0992_
*1012 _0993_
*1013 _0994_
*1014 _0995_
*1015 _0996_
*1016 _0997_
*1017 _0998_
*1018 _0999_
*1019 _1000_
*1020 _1001_
*1021 _1002_
*1022 _1003_
*1023 _1004_
*1024 _1005_
*1025 _1006_
*1026 _1007_
*1027 _1008_
*1028 _1009_
*1029 _1010_
*1030 _1011_
*1031 _1012_
*1032 _1013_
*1033 _1014_
*1034 _1015_
*1035 _1016_
*1036 _1017_
*1037 _1018_
*1038 _1019_
*1039 _1020_
*1040 _1021_
*1041 _1022_
*1042 _1023_
*1043 _1024_
*1044 _1025_
*1045 _1026_
*1046 _1027_
*1047 _1028_
*1048 _1029_
*1049 _1030_
*1050 _1031_
*1051 _1032_
*1052 _1033_
*1053 _1034_
*1054 _1035_
*1055 _1036_
*1056 _1037_
*1057 _1038_
*1058 _1039_
*1059 _1040_
*1060 _1041_
*1061 _1042_
*1062 _1043_
*1063 _1044_
*1064 _1045_
*1065 _1046_
*1066 _1047_
*1067 _1048_
*1068 _1049_
*1069 _1050_
*1070 _1051_
*1071 _1052_
*1072 _1053_
*1073 _1054_
*1074 _1055_
*1075 _1056_
*1076 clknet_0_io_in[0]
*1077 clknet_4_0_0_io_in[0]
*1078 clknet_4_10_0_io_in[0]
*1079 clknet_4_11_0_io_in[0]
*1080 clknet_4_12_0_io_in[0]
*1081 clknet_4_13_0_io_in[0]
*1082 clknet_4_14_0_io_in[0]
*1083 clknet_4_15_0_io_in[0]
*1084 clknet_4_1_0_io_in[0]
*1085 clknet_4_2_0_io_in[0]
*1086 clknet_4_3_0_io_in[0]
*1087 clknet_4_4_0_io_in[0]
*1088 clknet_4_5_0_io_in[0]
*1089 clknet_4_6_0_io_in[0]
*1090 clknet_4_7_0_io_in[0]
*1091 clknet_4_8_0_io_in[0]
*1092 clknet_4_9_0_io_in[0]
*1093 cpu\.carry_flag
*1094 cpu\.current_op\[0\]
*1095 cpu\.current_op\[1\]
*1096 cpu\.current_op\[2\]
*1097 cpu\.current_op\[3\]
*1098 cpu\.error_flag
*1099 cpu\.fetch_flag
*1100 cpu\.input_select\[1\]
*1101 cpu\.input_select\[2\]
*1102 cpu\.input_select\[3\]
*1103 cpu\.input_select\[4\]
*1104 cpu\.input_select\[5\]
*1105 cpu\.input_select\[6\]
*1106 cpu\.op_counter\[0\]
*1107 cpu\.op_counter\[1\]
*1108 cpu\.op_counter\[2\]
*1109 cpu\.out_dff\[0\]
*1110 cpu\.out_dff\[1\]
*1111 cpu\.out_dff\[2\]
*1112 cpu\.out_dff\[3\]
*1113 cpu\.out_dff\[4\]
*1114 cpu\.out_dff\[5\]
*1115 cpu\.out_dff\[6\]
*1116 cpu\.out_dff\[7\]
*1117 cpu\.outputter\.d\[0\]
*1118 cpu\.outputter\.d\[1\]
*1119 cpu\.outputter\.d\[2\]
*1120 cpu\.outputter\.d\[3\]
*1121 cpu\.outputter\.d\[4\]
*1122 cpu\.outputter\.d\[5\]
*1123 cpu\.outputter\.d\[6\]
*1124 cpu\.outputter\.d\[7\]
*1125 cpu\.ram\.address\[0\]
*1126 cpu\.ram\.address\[1\]
*1127 cpu\.ram\.address\[2\]
*1128 cpu\.ram\.address\[3\]
*1129 cpu\.ram\.data_out\[0\]
*1130 cpu\.ram\.data_out\[1\]
*1131 cpu\.ram\.data_out\[2\]
*1132 cpu\.ram\.data_out\[3\]
*1133 cpu\.ram\.memory_cell0\[0\]
*1134 cpu\.ram\.memory_cell0\[1\]
*1135 cpu\.ram\.memory_cell0\[2\]
*1136 cpu\.ram\.memory_cell0\[3\]
*1137 cpu\.ram\.memory_cell1\[0\]
*1138 cpu\.ram\.memory_cell1\[1\]
*1139 cpu\.ram\.memory_cell1\[2\]
*1140 cpu\.ram\.memory_cell1\[3\]
*1141 cpu\.ram\.memory_cell2\[0\]
*1142 cpu\.ram\.memory_cell2\[1\]
*1143 cpu\.ram\.memory_cell2\[2\]
*1144 cpu\.ram\.memory_cell2\[3\]
*1145 cpu\.ram\.memory_cell3\[0\]
*1146 cpu\.ram\.memory_cell3\[1\]
*1147 cpu\.ram\.memory_cell3\[2\]
*1148 cpu\.ram\.memory_cell3\[3\]
*1149 cpu\.ram\.memory_cell4\[0\]
*1150 cpu\.ram\.memory_cell4\[1\]
*1151 cpu\.ram\.memory_cell4\[2\]
*1152 cpu\.ram\.memory_cell4\[3\]
*1153 cpu\.ram\.memory_cell5\[0\]
*1154 cpu\.ram\.memory_cell5\[1\]
*1155 cpu\.ram\.memory_cell5\[2\]
*1156 cpu\.ram\.memory_cell5\[3\]
*1157 cpu\.ram\.memory_cell6\[0\]
*1158 cpu\.ram\.memory_cell6\[1\]
*1159 cpu\.ram\.memory_cell6\[2\]
*1160 cpu\.ram\.memory_cell6\[3\]
*1161 cpu\.ram\.memory_cell7\[0\]
*1162 cpu\.ram\.memory_cell7\[1\]
*1163 cpu\.ram\.memory_cell7\[2\]
*1164 cpu\.ram\.memory_cell7\[3\]
*1165 cpu\.ram\.memory_cell8\[0\]
*1166 cpu\.ram\.memory_cell8\[1\]
*1167 cpu\.ram\.memory_cell8\[2\]
*1168 cpu\.ram\.memory_cell8\[3\]
*1169 cpu\.ram\.memory_cell9\[0\]
*1170 cpu\.ram\.memory_cell9\[1\]
*1171 cpu\.ram\.memory_cell9\[2\]
*1172 cpu\.ram\.memory_cell9\[3\]
*1173 cpu\.ram\.memory_cella\[0\]
*1174 cpu\.ram\.memory_cella\[1\]
*1175 cpu\.ram\.memory_cella\[2\]
*1176 cpu\.ram\.memory_cella\[3\]
*1177 cpu\.ram\.memory_cellb\[0\]
*1178 cpu\.ram\.memory_cellb\[1\]
*1179 cpu\.ram\.memory_cellb\[2\]
*1180 cpu\.ram\.memory_cellb\[3\]
*1181 cpu\.ram\.memory_cellc\[0\]
*1182 cpu\.ram\.memory_cellc\[1\]
*1183 cpu\.ram\.memory_cellc\[2\]
*1184 cpu\.ram\.memory_cellc\[3\]
*1185 cpu\.ram\.memory_celld\[0\]
*1186 cpu\.ram\.memory_celld\[1\]
*1187 cpu\.ram\.memory_celld\[2\]
*1188 cpu\.ram\.memory_celld\[3\]
*1189 cpu\.ram\.memory_celle\[0\]
*1190 cpu\.ram\.memory_celle\[1\]
*1191 cpu\.ram\.memory_celle\[2\]
*1192 cpu\.ram\.memory_celle\[3\]
*1193 cpu\.ram\.memory_cellf\[0\]
*1194 cpu\.ram\.memory_cellf\[1\]
*1195 cpu\.ram\.memory_cellf\[2\]
*1196 cpu\.ram\.memory_cellf\[3\]
*1197 cpu\.ram_mode\[0\]
*1198 cpu\.ram_mode\[2\]
*1199 cpu\.ram_mode\[3\]
*1200 cpu\.result_register\[0\]
*1201 cpu\.result_register\[1\]
*1202 cpu\.result_register\[2\]
*1203 cpu\.result_register\[3\]
*1204 cpu\.result_register\[4\]
*1205 cpu\.result_register\[5\]
*1206 cpu\.result_register\[6\]
*1207 cpu\.result_register\[7\]
*1208 cpu\.stack\.a0\.q\[2\]
*1209 cpu\.stack\.a0\.q\[3\]
*1210 cpu\.stack\.a0\.q\[4\]
*1211 cpu\.stack\.a0\.q\[5\]
*1212 cpu\.stack\.a0\.q\[6\]
*1213 cpu\.stack\.a0\.q\[7\]
*1214 cpu\.stack\.a1\.q\[2\]
*1215 cpu\.stack\.a1\.q\[3\]
*1216 cpu\.stack\.a1\.q\[4\]
*1217 cpu\.stack\.a1\.q\[5\]
*1218 cpu\.stack\.a1\.q\[6\]
*1219 cpu\.stack\.a1\.q\[7\]
*1220 cpu\.stack\.a2\.q\[2\]
*1221 cpu\.stack\.a2\.q\[3\]
*1222 cpu\.stack\.a2\.q\[4\]
*1223 cpu\.stack\.a2\.q\[5\]
*1224 cpu\.stack\.a2\.q\[6\]
*1225 cpu\.stack\.a2\.q\[7\]
*1226 cpu\.stack\.a3\.q\[2\]
*1227 cpu\.stack\.a3\.q\[3\]
*1228 cpu\.stack\.a3\.q\[4\]
*1229 cpu\.stack\.a3\.q\[5\]
*1230 cpu\.stack\.a3\.q\[6\]
*1231 cpu\.stack\.a3\.q\[7\]
*1232 cpu\.stack_mode\[0\]
*1233 cpu\.stack_mode\[1\]
*1234 cpu\.stack_mode\[2\]
*1235 cpu\.stack_mode\[3\]
*1236 cpu\.stack_mode\[5\]
*1237 cpu\.stack_mode\[6\]
*1238 net1
*1239 net2
*1240 net3
*1241 net4
*1242 net5
*1243 net6
*1244 net7
*1245 ANTENNA_0
*1246 ANTENNA_1
*1247 ANTENNA_2
*1248 FILLER_0_106
*1249 FILLER_0_113
*1250 FILLER_0_118
*1251 FILLER_0_125
*1252 FILLER_0_13
*1253 FILLER_0_133
*1254 FILLER_0_139
*1255 FILLER_0_141
*1256 FILLER_0_145
*1257 FILLER_0_149
*1258 FILLER_0_156
*1259 FILLER_0_163
*1260 FILLER_0_169
*1261 FILLER_0_174
*1262 FILLER_0_179
*1263 FILLER_0_183
*1264 FILLER_0_190
*1265 FILLER_0_200
*1266 FILLER_0_208
*1267 FILLER_0_215
*1268 FILLER_0_223
*1269 FILLER_0_228
*1270 FILLER_0_234
*1271 FILLER_0_238
*1272 FILLER_0_24
*1273 FILLER_0_245
*1274 FILLER_0_251
*1275 FILLER_0_256
*1276 FILLER_0_263
*1277 FILLER_0_270
*1278 FILLER_0_278
*1279 FILLER_0_284
*1280 FILLER_0_29
*1281 FILLER_0_296
*1282 FILLER_0_3
*1283 FILLER_0_38
*1284 FILLER_0_45
*1285 FILLER_0_52
*1286 FILLER_0_57
*1287 FILLER_0_66
*1288 FILLER_0_73
*1289 FILLER_0_80
*1290 FILLER_0_85
*1291 FILLER_0_92
*1292 FILLER_0_99
*1293 FILLER_10_107
*1294 FILLER_10_121
*1295 FILLER_10_125
*1296 FILLER_10_131
*1297 FILLER_10_139
*1298 FILLER_10_141
*1299 FILLER_10_145
*1300 FILLER_10_149
*1301 FILLER_10_155
*1302 FILLER_10_159
*1303 FILLER_10_170
*1304 FILLER_10_180
*1305 FILLER_10_189
*1306 FILLER_10_19
*1307 FILLER_10_195
*1308 FILLER_10_203
*1309 FILLER_10_213
*1310 FILLER_10_226
*1311 FILLER_10_242
*1312 FILLER_10_250
*1313 FILLER_10_258
*1314 FILLER_10_27
*1315 FILLER_10_270
*1316 FILLER_10_290
*1317 FILLER_10_298
*1318 FILLER_10_3
*1319 FILLER_10_39
*1320 FILLER_10_50
*1321 FILLER_10_60
*1322 FILLER_10_66
*1323 FILLER_10_72
*1324 FILLER_10_80
*1325 FILLER_10_90
*1326 FILLER_10_98
*1327 FILLER_11_100
*1328 FILLER_11_108
*1329 FILLER_11_113
*1330 FILLER_11_125
*1331 FILLER_11_139
*1332 FILLER_11_145
*1333 FILLER_11_15
*1334 FILLER_11_162
*1335 FILLER_11_177
*1336 FILLER_11_185
*1337 FILLER_11_19
*1338 FILLER_11_192
*1339 FILLER_11_204
*1340 FILLER_11_213
*1341 FILLER_11_220
*1342 FILLER_11_232
*1343 FILLER_11_241
*1344 FILLER_11_249
*1345 FILLER_11_257
*1346 FILLER_11_266
*1347 FILLER_11_27
*1348 FILLER_11_274
*1349 FILLER_11_285
*1350 FILLER_11_293
*1351 FILLER_11_38
*1352 FILLER_11_52
*1353 FILLER_11_6
*1354 FILLER_11_67
*1355 FILLER_11_76
*1356 FILLER_11_84
*1357 FILLER_11_96
*1358 FILLER_12_10
*1359 FILLER_12_108
*1360 FILLER_12_123
*1361 FILLER_12_134
*1362 FILLER_12_141
*1363 FILLER_12_146
*1364 FILLER_12_161
*1365 FILLER_12_168
*1366 FILLER_12_172
*1367 FILLER_12_189
*1368 FILLER_12_195
*1369 FILLER_12_20
*1370 FILLER_12_202
*1371 FILLER_12_216
*1372 FILLER_12_230
*1373 FILLER_12_239
*1374 FILLER_12_248
*1375 FILLER_12_253
*1376 FILLER_12_257
*1377 FILLER_12_263
*1378 FILLER_12_272
*1379 FILLER_12_281
*1380 FILLER_12_288
*1381 FILLER_12_29
*1382 FILLER_12_296
*1383 FILLER_12_33
*1384 FILLER_12_44
*1385 FILLER_12_58
*1386 FILLER_12_72
*1387 FILLER_12_80
*1388 FILLER_12_85
*1389 FILLER_12_93
*1390 FILLER_12_99
*1391 FILLER_13_108
*1392 FILLER_13_121
*1393 FILLER_13_132
*1394 FILLER_13_142
*1395 FILLER_13_149
*1396 FILLER_13_156
*1397 FILLER_13_164
*1398 FILLER_13_174
*1399 FILLER_13_184
*1400 FILLER_13_19
*1401 FILLER_13_193
*1402 FILLER_13_202
*1403 FILLER_13_220
*1404 FILLER_13_233
*1405 FILLER_13_242
*1406 FILLER_13_251
*1407 FILLER_13_260
*1408 FILLER_13_266
*1409 FILLER_13_273
*1410 FILLER_13_279
*1411 FILLER_13_287
*1412 FILLER_13_295
*1413 FILLER_13_3
*1414 FILLER_13_30
*1415 FILLER_13_44
*1416 FILLER_13_52
*1417 FILLER_13_57
*1418 FILLER_13_67
*1419 FILLER_13_79
*1420 FILLER_13_8
*1421 FILLER_13_92
*1422 FILLER_14_102
*1423 FILLER_14_114
*1424 FILLER_14_124
*1425 FILLER_14_13
*1426 FILLER_14_133
*1427 FILLER_14_139
*1428 FILLER_14_141
*1429 FILLER_14_159
*1430 FILLER_14_172
*1431 FILLER_14_179
*1432 FILLER_14_187
*1433 FILLER_14_192
*1434 FILLER_14_197
*1435 FILLER_14_203
*1436 FILLER_14_219
*1437 FILLER_14_227
*1438 FILLER_14_237
*1439 FILLER_14_24
*1440 FILLER_14_247
*1441 FILLER_14_251
*1442 FILLER_14_260
*1443 FILLER_14_270
*1444 FILLER_14_278
*1445 FILLER_14_295
*1446 FILLER_14_3
*1447 FILLER_14_36
*1448 FILLER_14_52
*1449 FILLER_14_66
*1450 FILLER_14_78
*1451 FILLER_14_88
*1452 FILLER_15_108
*1453 FILLER_15_113
*1454 FILLER_15_128
*1455 FILLER_15_139
*1456 FILLER_15_14
*1457 FILLER_15_149
*1458 FILLER_15_157
*1459 FILLER_15_164
*1460 FILLER_15_179
*1461 FILLER_15_190
*1462 FILLER_15_197
*1463 FILLER_15_211
*1464 FILLER_15_220
*1465 FILLER_15_235
*1466 FILLER_15_24
*1467 FILLER_15_247
*1468 FILLER_15_251
*1469 FILLER_15_260
*1470 FILLER_15_269
*1471 FILLER_15_276
*1472 FILLER_15_286
*1473 FILLER_15_294
*1474 FILLER_15_298
*1475 FILLER_15_3
*1476 FILLER_15_38
*1477 FILLER_15_52
*1478 FILLER_15_64
*1479 FILLER_15_80
*1480 FILLER_15_93
*1481 FILLER_15_97
*1482 FILLER_16_10
*1483 FILLER_16_115
*1484 FILLER_16_123
*1485 FILLER_16_132
*1486 FILLER_16_146
*1487 FILLER_16_154
*1488 FILLER_16_160
*1489 FILLER_16_169
*1490 FILLER_16_180
*1491 FILLER_16_192
*1492 FILLER_16_213
*1493 FILLER_16_217
*1494 FILLER_16_229
*1495 FILLER_16_24
*1496 FILLER_16_248
*1497 FILLER_16_260
*1498 FILLER_16_269
*1499 FILLER_16_275
*1500 FILLER_16_29
*1501 FILLER_16_292
*1502 FILLER_16_298
*1503 FILLER_16_3
*1504 FILLER_16_33
*1505 FILLER_16_44
*1506 FILLER_16_58
*1507 FILLER_16_72
*1508 FILLER_16_80
*1509 FILLER_16_88
*1510 FILLER_16_99
*1511 FILLER_17_108
*1512 FILLER_17_113
*1513 FILLER_17_122
*1514 FILLER_17_129
*1515 FILLER_17_143
*1516 FILLER_17_147
*1517 FILLER_17_164
*1518 FILLER_17_176
*1519 FILLER_17_187
*1520 FILLER_17_19
*1521 FILLER_17_199
*1522 FILLER_17_205
*1523 FILLER_17_209
*1524 FILLER_17_220
*1525 FILLER_17_232
*1526 FILLER_17_248
*1527 FILLER_17_252
*1528 FILLER_17_259
*1529 FILLER_17_269
*1530 FILLER_17_27
*1531 FILLER_17_277
*1532 FILLER_17_281
*1533 FILLER_17_293
*1534 FILLER_17_38
*1535 FILLER_17_48
*1536 FILLER_17_63
*1537 FILLER_17_79
*1538 FILLER_17_90
*1539 FILLER_17_99
*1540 FILLER_18_108
*1541 FILLER_18_119
*1542 FILLER_18_130
*1543 FILLER_18_138
*1544 FILLER_18_151
*1545 FILLER_18_163
*1546 FILLER_18_171
*1547 FILLER_18_179
*1548 FILLER_18_18
*1549 FILLER_18_191
*1550 FILLER_18_195
*1551 FILLER_18_197
*1552 FILLER_18_201
*1553 FILLER_18_212
*1554 FILLER_18_223
*1555 FILLER_18_231
*1556 FILLER_18_247
*1557 FILLER_18_251
*1558 FILLER_18_253
*1559 FILLER_18_26
*1560 FILLER_18_264
*1561 FILLER_18_270
*1562 FILLER_18_277
*1563 FILLER_18_289
*1564 FILLER_18_29
*1565 FILLER_18_297
*1566 FILLER_18_33
*1567 FILLER_18_45
*1568 FILLER_18_49
*1569 FILLER_18_56
*1570 FILLER_18_6
*1571 FILLER_18_64
*1572 FILLER_18_78
*1573 FILLER_18_88
*1574 FILLER_18_97
*1575 FILLER_19_105
*1576 FILLER_19_111
*1577 FILLER_19_117
*1578 FILLER_19_12
*1579 FILLER_19_121
*1580 FILLER_19_125
*1581 FILLER_19_137
*1582 FILLER_19_141
*1583 FILLER_19_146
*1584 FILLER_19_152
*1585 FILLER_19_156
*1586 FILLER_19_160
*1587 FILLER_19_164
*1588 FILLER_19_177
*1589 FILLER_19_189
*1590 FILLER_19_211
*1591 FILLER_19_219
*1592 FILLER_19_223
*1593 FILLER_19_231
*1594 FILLER_19_240
*1595 FILLER_19_250
*1596 FILLER_19_26
*1597 FILLER_19_262
*1598 FILLER_19_274
*1599 FILLER_19_281
*1600 FILLER_19_289
*1601 FILLER_19_297
*1602 FILLER_19_3
*1603 FILLER_19_30
*1604 FILLER_19_41
*1605 FILLER_19_52
*1606 FILLER_19_65
*1607 FILLER_19_81
*1608 FILLER_19_90
*1609 FILLER_19_98
*1610 FILLER_1_108
*1611 FILLER_1_113
*1612 FILLER_1_126
*1613 FILLER_1_139
*1614 FILLER_1_159
*1615 FILLER_1_167
*1616 FILLER_1_17
*1617 FILLER_1_185
*1618 FILLER_1_205
*1619 FILLER_1_216
*1620 FILLER_1_228
*1621 FILLER_1_250
*1622 FILLER_1_27
*1623 FILLER_1_274
*1624 FILLER_1_284
*1625 FILLER_1_296
*1626 FILLER_1_33
*1627 FILLER_1_41
*1628 FILLER_1_52
*1629 FILLER_1_6
*1630 FILLER_1_65
*1631 FILLER_1_76
*1632 FILLER_1_84
*1633 FILLER_1_88
*1634 FILLER_1_98
*1635 FILLER_20_104
*1636 FILLER_20_115
*1637 FILLER_20_127
*1638 FILLER_20_136
*1639 FILLER_20_141
*1640 FILLER_20_159
*1641 FILLER_20_171
*1642 FILLER_20_175
*1643 FILLER_20_19
*1644 FILLER_20_192
*1645 FILLER_20_197
*1646 FILLER_20_209
*1647 FILLER_20_221
*1648 FILLER_20_232
*1649 FILLER_20_239
*1650 FILLER_20_246
*1651 FILLER_20_253
*1652 FILLER_20_259
*1653 FILLER_20_268
*1654 FILLER_20_27
*1655 FILLER_20_274
*1656 FILLER_20_291
*1657 FILLER_20_36
*1658 FILLER_20_47
*1659 FILLER_20_53
*1660 FILLER_20_61
*1661 FILLER_20_75
*1662 FILLER_20_83
*1663 FILLER_20_90
*1664 FILLER_20_98
*1665 FILLER_21_108
*1666 FILLER_21_123
*1667 FILLER_21_133
*1668 FILLER_21_141
*1669 FILLER_21_146
*1670 FILLER_21_154
*1671 FILLER_21_164
*1672 FILLER_21_177
*1673 FILLER_21_188
*1674 FILLER_21_199
*1675 FILLER_21_207
*1676 FILLER_21_21
*1677 FILLER_21_216
*1678 FILLER_21_241
*1679 FILLER_21_252
*1680 FILLER_21_259
*1681 FILLER_21_27
*1682 FILLER_21_273
*1683 FILLER_21_279
*1684 FILLER_21_286
*1685 FILLER_21_298
*1686 FILLER_21_3
*1687 FILLER_21_38
*1688 FILLER_21_42
*1689 FILLER_21_51
*1690 FILLER_21_55
*1691 FILLER_21_57
*1692 FILLER_21_70
*1693 FILLER_21_84
*1694 FILLER_21_9
*1695 FILLER_21_96
*1696 FILLER_22_105
*1697 FILLER_22_112
*1698 FILLER_22_116
*1699 FILLER_22_125
*1700 FILLER_22_129
*1701 FILLER_22_136
*1702 FILLER_22_141
*1703 FILLER_22_146
*1704 FILLER_22_158
*1705 FILLER_22_165
*1706 FILLER_22_171
*1707 FILLER_22_179
*1708 FILLER_22_19
*1709 FILLER_22_190
*1710 FILLER_22_197
*1711 FILLER_22_219
*1712 FILLER_22_227
*1713 FILLER_22_236
*1714 FILLER_22_248
*1715 FILLER_22_259
*1716 FILLER_22_27
*1717 FILLER_22_281
*1718 FILLER_22_29
*1719 FILLER_22_293
*1720 FILLER_22_3
*1721 FILLER_22_33
*1722 FILLER_22_47
*1723 FILLER_22_63
*1724 FILLER_22_69
*1725 FILLER_22_7
*1726 FILLER_22_78
*1727 FILLER_22_89
*1728 FILLER_23_108
*1729 FILLER_23_113
*1730 FILLER_23_122
*1731 FILLER_23_130
*1732 FILLER_23_138
*1733 FILLER_23_158
*1734 FILLER_23_166
*1735 FILLER_23_169
*1736 FILLER_23_181
*1737 FILLER_23_19
*1738 FILLER_23_203
*1739 FILLER_23_213
*1740 FILLER_23_221
*1741 FILLER_23_231
*1742 FILLER_23_239
*1743 FILLER_23_25
*1744 FILLER_23_257
*1745 FILLER_23_270
*1746 FILLER_23_278
*1747 FILLER_23_281
*1748 FILLER_23_29
*1749 FILLER_23_293
*1750 FILLER_23_38
*1751 FILLER_23_49
*1752 FILLER_23_55
*1753 FILLER_23_60
*1754 FILLER_23_71
*1755 FILLER_23_79
*1756 FILLER_23_83
*1757 FILLER_23_88
*1758 FILLER_23_99
*1759 FILLER_24_102
*1760 FILLER_24_117
*1761 FILLER_24_121
*1762 FILLER_24_127
*1763 FILLER_24_136
*1764 FILLER_24_146
*1765 FILLER_24_154
*1766 FILLER_24_171
*1767 FILLER_24_175
*1768 FILLER_24_19
*1769 FILLER_24_192
*1770 FILLER_24_205
*1771 FILLER_24_211
*1772 FILLER_24_228
*1773 FILLER_24_236
*1774 FILLER_24_247
*1775 FILLER_24_251
*1776 FILLER_24_269
*1777 FILLER_24_27
*1778 FILLER_24_289
*1779 FILLER_24_297
*1780 FILLER_24_3
*1781 FILLER_24_34
*1782 FILLER_24_43
*1783 FILLER_24_54
*1784 FILLER_24_61
*1785 FILLER_24_7
*1786 FILLER_24_75
*1787 FILLER_24_83
*1788 FILLER_24_85
*1789 FILLER_24_91
*1790 FILLER_25_100
*1791 FILLER_25_104
*1792 FILLER_25_108
*1793 FILLER_25_113
*1794 FILLER_25_124
*1795 FILLER_25_136
*1796 FILLER_25_14
*1797 FILLER_25_143
*1798 FILLER_25_158
*1799 FILLER_25_166
*1800 FILLER_25_179
*1801 FILLER_25_191
*1802 FILLER_25_199
*1803 FILLER_25_216
*1804 FILLER_25_22
*1805 FILLER_25_225
*1806 FILLER_25_244
*1807 FILLER_25_252
*1808 FILLER_25_265
*1809 FILLER_25_276
*1810 FILLER_25_281
*1811 FILLER_25_293
*1812 FILLER_25_3
*1813 FILLER_25_31
*1814 FILLER_25_41
*1815 FILLER_25_52
*1816 FILLER_25_67
*1817 FILLER_25_7
*1818 FILLER_25_74
*1819 FILLER_25_89
*1820 FILLER_26_108
*1821 FILLER_26_115
*1822 FILLER_26_127
*1823 FILLER_26_136
*1824 FILLER_26_151
*1825 FILLER_26_157
*1826 FILLER_26_174
*1827 FILLER_26_186
*1828 FILLER_26_19
*1829 FILLER_26_194
*1830 FILLER_26_197
*1831 FILLER_26_205
*1832 FILLER_26_209
*1833 FILLER_26_217
*1834 FILLER_26_221
*1835 FILLER_26_227
*1836 FILLER_26_238
*1837 FILLER_26_247
*1838 FILLER_26_251
*1839 FILLER_26_258
*1840 FILLER_26_27
*1841 FILLER_26_278
*1842 FILLER_26_290
*1843 FILLER_26_298
*1844 FILLER_26_32
*1845 FILLER_26_44
*1846 FILLER_26_52
*1847 FILLER_26_58
*1848 FILLER_26_69
*1849 FILLER_26_80