*SPEF "ieee 1481-1999"
*DESIGN "ericsmi_speed_test"
*DATE "11:11:11 Fri 11 11, 1111"
*VENDOR "OpenRCX"
*PROGRAM "Parallel Extraction"
*VERSION "1.0"
*DESIGN_FLOW "NAME_SCOPE LOCAL" "PIN_CAP NONE"
*DIVIDER /
*DELIMITER :
*BUS_DELIMITER []
*T_UNIT 1 NS
*C_UNIT 1 PF
*R_UNIT 1 OHM
*L_UNIT 1 HENRY

*NAME_MAP
*1 io_in[0]
*2 io_in[1]
*3 io_in[2]
*4 io_in[3]
*5 io_in[4]
*6 io_in[5]
*7 io_in[6]
*8 io_in[7]
*9 io_out[0]
*10 io_out[1]
*11 io_out[2]
*12 io_out[3]
*13 io_out[4]
*14 io_out[5]
*15 io_out[6]
*16 io_out[7]
*19 _000_
*20 _001_
*21 _002_
*22 _003_
*23 _004_
*24 _005_
*25 _006_
*26 _007_
*27 _008_
*28 _009_
*29 _010_
*30 _011_
*31 _012_
*32 _013_
*33 _014_
*34 _015_
*35 _016_
*36 _017_
*37 _018_
*38 _019_
*39 _020_
*40 _021_
*41 _022_
*42 _023_
*43 _024_
*44 _025_
*45 _026_
*46 _027_
*47 _028_
*48 _029_
*49 _030_
*50 _031_
*51 _032_
*52 _033_
*53 _034_
*54 _035_
*55 _036_
*56 _037_
*57 _038_
*58 _039_
*59 _040_
*60 _041_
*61 _042_
*62 _043_
*63 _044_
*64 _045_
*65 _046_
*66 _047_
*67 _048_
*68 _049_
*69 _050_
*70 _051_
*71 _052_
*72 _053_
*73 _054_
*74 _055_
*75 _056_
*76 _057_
*77 _058_
*78 _059_
*79 _060_
*80 _061_
*81 _062_
*82 _063_
*83 _064_
*84 _065_
*85 _066_
*86 _067_
*87 _068_
*88 _069_
*89 _070_
*90 _071_
*91 _072_
*92 _073_
*93 _074_
*94 _075_
*95 _076_
*96 _077_
*97 _078_
*98 _079_
*99 _080_
*100 _081_
*101 _082_
*102 _083_
*103 _084_
*104 _085_
*105 _086_
*106 _087_
*107 _088_
*108 _089_
*109 _090_
*110 _091_
*111 _092_
*112 _093_
*113 _094_
*114 _095_
*115 clknet_0_io_in[0]
*116 clknet_1_0__leaf_io_in[0]
*117 clknet_1_1__leaf_io_in[0]
*118 dt0\.q
*119 dt0\.rst
*120 dt1\.q
*121 dt2\.b
*122 dt2\.q
*123 dt3\.b
*124 dt3\.q
*125 net1
*126 net10
*127 net11
*128 net12
*129 net13
*130 net14
*131 net15
*132 net16
*133 net17
*134 net18
*135 net19
*136 net2
*137 net20
*138 net21
*139 net22
*140 net3
*141 net4
*142 net5
*143 net6
*144 net7
*145 net8
*146 net9
*147 ring0\.count_en
*148 ring0\.count_en_s0
*149 ring0\.count_en_s1
*150 ring0\.dcg\.b
*151 ring0\.dcg\.clk
*152 ring0\.dcg\.pre
*153 ring0\.dcg\.q
*154 ring0\.ds0\.clk
*155 ring0\.genblk1\[10\]\.dcg\.b
*156 ring0\.genblk1\[10\]\.dcg\.clk
*157 ring0\.genblk1\[10\]\.dcg\.q
*158 ring0\.genblk1\[11\]\.dcg\.b
*159 ring0\.genblk1\[11\]\.dcg\.q
*160 ring0\.genblk1\[12\]\.dcg\.b
*161 ring0\.genblk1\[12\]\.dcg\.q
*162 ring0\.genblk1\[13\]\.dcg\.b
*163 ring0\.genblk1\[13\]\.dcg\.q
*164 ring0\.genblk1\[14\]\.dcg\.b
*165 ring0\.genblk1\[14\]\.dcg\.q
*166 ring0\.genblk1\[15\]\.dcg\.b
*167 ring0\.genblk1\[15\]\.dcg\.q
*168 ring0\.genblk1\[16\]\.dcg\.b
*169 ring0\.genblk1\[16\]\.dcg\.q
*170 ring0\.genblk1\[17\]\.dcg\.b
*171 ring0\.genblk1\[17\]\.dcg\.q
*172 ring0\.genblk1\[18\]\.dcg\.b
*173 ring0\.genblk1\[18\]\.dcg\.q
*174 ring0\.genblk1\[19\]\.dcg\.b
*175 ring0\.genblk1\[19\]\.dcg\.q
*176 ring0\.genblk1\[1\]\.dcg\.b
*177 ring0\.genblk1\[1\]\.dcg\.q
*178 ring0\.genblk1\[20\]\.dcg\.b
*179 ring0\.genblk1\[20\]\.dcg\.q
*180 ring0\.genblk1\[21\]\.dcg\.b
*181 ring0\.genblk1\[21\]\.dcg\.q
*182 ring0\.genblk1\[22\]\.dcg\.b
*183 ring0\.genblk1\[2\]\.dcg\.b
*184 ring0\.genblk1\[2\]\.dcg\.q
*185 ring0\.genblk1\[3\]\.dcg\.b
*186 ring0\.genblk1\[3\]\.dcg\.q
*187 ring0\.genblk1\[4\]\.dcg\.b
*188 ring0\.genblk1\[4\]\.dcg\.q
*189 ring0\.genblk1\[5\]\.dcg\.b
*190 ring0\.genblk1\[5\]\.dcg\.q
*191 ring0\.genblk1\[6\]\.dcg\.b
*192 ring0\.genblk1\[6\]\.dcg\.q
*193 ring0\.genblk1\[7\]\.dcg\.b
*194 ring0\.genblk1\[7\]\.dcg\.q
*195 ring0\.genblk1\[8\]\.dcg\.b
*196 ring0\.genblk1\[8\]\.dcg\.q
*197 ring0\.genblk1\[9\]\.dcg\.b
*198 ring0\.inv_b\.A
*199 ring0\.ring_osc\.idelay\[0\]\.Y
*200 ring0\.ring_osc\.idelay\[100\]\.A
*201 ring0\.ring_osc\.idelay\[100\]\.Y
*202 ring0\.ring_osc\.idelay\[101\]\.Y
*203 ring0\.ring_osc\.idelay\[102\]\.Y
*204 ring0\.ring_osc\.idelay\[103\]\.Y
*205 ring0\.ring_osc\.idelay\[104\]\.Y
*206 ring0\.ring_osc\.idelay\[105\]\.Y
*207 ring0\.ring_osc\.idelay\[106\]\.Y
*208 ring0\.ring_osc\.idelay\[107\]\.Y
*209 ring0\.ring_osc\.idelay\[108\]\.Y
*210 ring0\.ring_osc\.idelay\[109\]\.Y
*211 ring0\.ring_osc\.idelay\[10\]\.A
*212 ring0\.ring_osc\.idelay\[10\]\.Y
*213 ring0\.ring_osc\.idelay\[110\]\.Y
*214 ring0\.ring_osc\.idelay\[111\]\.Y
*215 ring0\.ring_osc\.idelay\[112\]\.Y
*216 ring0\.ring_osc\.idelay\[113\]\.Y
*217 ring0\.ring_osc\.idelay\[114\]\.Y
*218 ring0\.ring_osc\.idelay\[115\]\.Y
*219 ring0\.ring_osc\.idelay\[116\]\.Y
*220 ring0\.ring_osc\.idelay\[117\]\.Y
*221 ring0\.ring_osc\.idelay\[118\]\.Y
*222 ring0\.ring_osc\.idelay\[119\]\.Y
*223 ring0\.ring_osc\.idelay\[11\]\.Y
*224 ring0\.ring_osc\.idelay\[120\]\.Y
*225 ring0\.ring_osc\.idelay\[121\]\.Y
*226 ring0\.ring_osc\.idelay\[122\]\.Y
*227 ring0\.ring_osc\.idelay\[123\]\.Y
*228 ring0\.ring_osc\.idelay\[124\]\.Y
*229 ring0\.ring_osc\.idelay\[125\]\.Y
*230 ring0\.ring_osc\.idelay\[126\]\.Y
*231 ring0\.ring_osc\.idelay\[127\]\.Y
*232 ring0\.ring_osc\.idelay\[128\]\.Y
*233 ring0\.ring_osc\.idelay\[129\]\.Y
*234 ring0\.ring_osc\.idelay\[12\]\.Y
*235 ring0\.ring_osc\.idelay\[130\]\.Y
*236 ring0\.ring_osc\.idelay\[131\]\.Y
*237 ring0\.ring_osc\.idelay\[132\]\.Y
*238 ring0\.ring_osc\.idelay\[133\]\.Y
*239 ring0\.ring_osc\.idelay\[134\]\.Y
*240 ring0\.ring_osc\.idelay\[135\]\.Y
*241 ring0\.ring_osc\.idelay\[136\]\.Y
*242 ring0\.ring_osc\.idelay\[137\]\.Y
*243 ring0\.ring_osc\.idelay\[138\]\.Y
*244 ring0\.ring_osc\.idelay\[139\]\.Y
*245 ring0\.ring_osc\.idelay\[13\]\.Y
*246 ring0\.ring_osc\.idelay\[140\]\.Y
*247 ring0\.ring_osc\.idelay\[141\]\.Y
*248 ring0\.ring_osc\.idelay\[142\]\.Y
*249 ring0\.ring_osc\.idelay\[143\]\.Y
*250 ring0\.ring_osc\.idelay\[144\]\.Y
*251 ring0\.ring_osc\.idelay\[145\]\.Y
*252 ring0\.ring_osc\.idelay\[146\]\.Y
*253 ring0\.ring_osc\.idelay\[147\]\.Y
*254 ring0\.ring_osc\.idelay\[148\]\.Y
*255 ring0\.ring_osc\.idelay\[149\]\.Y
*256 ring0\.ring_osc\.idelay\[14\]\.Y
*257 ring0\.ring_osc\.idelay\[15\]\.Y
*258 ring0\.ring_osc\.idelay\[16\]\.Y
*259 ring0\.ring_osc\.idelay\[17\]\.Y
*260 ring0\.ring_osc\.idelay\[18\]\.Y
*261 ring0\.ring_osc\.idelay\[19\]\.Y
*262 ring0\.ring_osc\.idelay\[1\]\.Y
*263 ring0\.ring_osc\.idelay\[20\]\.Y
*264 ring0\.ring_osc\.idelay\[21\]\.Y
*265 ring0\.ring_osc\.idelay\[22\]\.Y
*266 ring0\.ring_osc\.idelay\[23\]\.Y
*267 ring0\.ring_osc\.idelay\[24\]\.Y
*268 ring0\.ring_osc\.idelay\[25\]\.Y
*269 ring0\.ring_osc\.idelay\[26\]\.Y
*270 ring0\.ring_osc\.idelay\[27\]\.Y
*271 ring0\.ring_osc\.idelay\[28\]\.Y
*272 ring0\.ring_osc\.idelay\[29\]\.Y
*273 ring0\.ring_osc\.idelay\[2\]\.Y
*274 ring0\.ring_osc\.idelay\[30\]\.Y
*275 ring0\.ring_osc\.idelay\[31\]\.Y
*276 ring0\.ring_osc\.idelay\[32\]\.Y
*277 ring0\.ring_osc\.idelay\[33\]\.Y
*278 ring0\.ring_osc\.idelay\[34\]\.Y
*279 ring0\.ring_osc\.idelay\[35\]\.Y
*280 ring0\.ring_osc\.idelay\[36\]\.Y
*281 ring0\.ring_osc\.idelay\[37\]\.Y
*282 ring0\.ring_osc\.idelay\[38\]\.Y
*283 ring0\.ring_osc\.idelay\[39\]\.Y
*284 ring0\.ring_osc\.idelay\[3\]\.Y
*285 ring0\.ring_osc\.idelay\[40\]\.Y
*286 ring0\.ring_osc\.idelay\[41\]\.Y
*287 ring0\.ring_osc\.idelay\[42\]\.Y
*288 ring0\.ring_osc\.idelay\[43\]\.Y
*289 ring0\.ring_osc\.idelay\[44\]\.Y
*290 ring0\.ring_osc\.idelay\[45\]\.Y
*291 ring0\.ring_osc\.idelay\[46\]\.Y
*292 ring0\.ring_osc\.idelay\[47\]\.Y
*293 ring0\.ring_osc\.idelay\[48\]\.Y
*294 ring0\.ring_osc\.idelay\[49\]\.Y
*295 ring0\.ring_osc\.idelay\[4\]\.Y
*296 ring0\.ring_osc\.idelay\[50\]\.Y
*297 ring0\.ring_osc\.idelay\[51\]\.Y
*298 ring0\.ring_osc\.idelay\[52\]\.Y
*299 ring0\.ring_osc\.idelay\[53\]\.Y
*300 ring0\.ring_osc\.idelay\[54\]\.Y
*301 ring0\.ring_osc\.idelay\[55\]\.Y
*302 ring0\.ring_osc\.idelay\[56\]\.Y
*303 ring0\.ring_osc\.idelay\[57\]\.Y
*304 ring0\.ring_osc\.idelay\[58\]\.Y
*305 ring0\.ring_osc\.idelay\[59\]\.Y
*306 ring0\.ring_osc\.idelay\[5\]\.Y
*307 ring0\.ring_osc\.idelay\[60\]\.Y
*308 ring0\.ring_osc\.idelay\[61\]\.Y
*309 ring0\.ring_osc\.idelay\[62\]\.Y
*310 ring0\.ring_osc\.idelay\[63\]\.Y
*311 ring0\.ring_osc\.idelay\[64\]\.Y
*312 ring0\.ring_osc\.idelay\[65\]\.Y
*313 ring0\.ring_osc\.idelay\[66\]\.Y
*314 ring0\.ring_osc\.idelay\[67\]\.Y
*315 ring0\.ring_osc\.idelay\[68\]\.Y
*316 ring0\.ring_osc\.idelay\[69\]\.Y
*317 ring0\.ring_osc\.idelay\[6\]\.Y
*318 ring0\.ring_osc\.idelay\[70\]\.Y
*319 ring0\.ring_osc\.idelay\[71\]\.Y
*320 ring0\.ring_osc\.idelay\[72\]\.Y
*321 ring0\.ring_osc\.idelay\[73\]\.Y
*322 ring0\.ring_osc\.idelay\[74\]\.Y
*323 ring0\.ring_osc\.idelay\[75\]\.Y
*324 ring0\.ring_osc\.idelay\[76\]\.Y
*325 ring0\.ring_osc\.idelay\[77\]\.Y
*326 ring0\.ring_osc\.idelay\[78\]\.Y
*327 ring0\.ring_osc\.idelay\[79\]\.Y
*328 ring0\.ring_osc\.idelay\[7\]\.Y
*329 ring0\.ring_osc\.idelay\[80\]\.Y
*330 ring0\.ring_osc\.idelay\[81\]\.Y
*331 ring0\.ring_osc\.idelay\[82\]\.Y
*332 ring0\.ring_osc\.idelay\[83\]\.Y
*333 ring0\.ring_osc\.idelay\[84\]\.Y
*334 ring0\.ring_osc\.idelay\[85\]\.Y
*335 ring0\.ring_osc\.idelay\[86\]\.Y
*336 ring0\.ring_osc\.idelay\[87\]\.Y
*337 ring0\.ring_osc\.idelay\[88\]\.Y
*338 ring0\.ring_osc\.idelay\[89\]\.Y
*339 ring0\.ring_osc\.idelay\[8\]\.Y
*340 ring0\.ring_osc\.idelay\[90\]\.Y
*341 ring0\.ring_osc\.idelay\[91\]\.Y
*342 ring0\.ring_osc\.idelay\[92\]\.Y
*343 ring0\.ring_osc\.idelay\[93\]\.Y
*344 ring0\.ring_osc\.idelay\[94\]\.Y
*345 ring0\.ring_osc\.idelay\[95\]\.Y
*346 ring0\.ring_osc\.idelay\[96\]\.Y
*347 ring0\.ring_osc\.idelay\[97\]\.Y
*348 ring0\.ring_osc\.idelay\[98\]\.Y
*349 ring1\.count_en_s0
*350 ring1\.count_en_s1
*351 ring1\.dcg\.b
*352 ring1\.dcg\.clk
*353 ring1\.dcg\.pre
*354 ring1\.dcg\.q
*355 ring1\.ds0\.clk
*356 ring1\.genblk1\[10\]\.dcg\.b
*357 ring1\.genblk1\[10\]\.dcg\.clk
*358 ring1\.genblk1\[10\]\.dcg\.q
*359 ring1\.genblk1\[11\]\.dcg\.b
*360 ring1\.genblk1\[11\]\.dcg\.q
*361 ring1\.genblk1\[12\]\.dcg\.b
*362 ring1\.genblk1\[12\]\.dcg\.q
*363 ring1\.genblk1\[13\]\.dcg\.b
*364 ring1\.genblk1\[13\]\.dcg\.q
*365 ring1\.genblk1\[14\]\.dcg\.b
*366 ring1\.genblk1\[14\]\.dcg\.q
*367 ring1\.genblk1\[15\]\.dcg\.b
*368 ring1\.genblk1\[15\]\.dcg\.q
*369 ring1\.genblk1\[16\]\.dcg\.b
*370 ring1\.genblk1\[16\]\.dcg\.q
*371 ring1\.genblk1\[17\]\.dcg\.b
*372 ring1\.genblk1\[17\]\.dcg\.q
*373 ring1\.genblk1\[18\]\.dcg\.b
*374 ring1\.genblk1\[18\]\.dcg\.q
*375 ring1\.genblk1\[19\]\.dcg\.b
*376 ring1\.genblk1\[19\]\.dcg\.q
*377 ring1\.genblk1\[1\]\.dcg\.b
*378 ring1\.genblk1\[1\]\.dcg\.q
*379 ring1\.genblk1\[20\]\.dcg\.b
*380 ring1\.genblk1\[20\]\.dcg\.q
*381 ring1\.genblk1\[21\]\.dcg\.b
*382 ring1\.genblk1\[21\]\.dcg\.q
*383 ring1\.genblk1\[22\]\.dcg\.b
*384 ring1\.genblk1\[2\]\.dcg\.b
*385 ring1\.genblk1\[2\]\.dcg\.q
*386 ring1\.genblk1\[3\]\.dcg\.b
*387 ring1\.genblk1\[3\]\.dcg\.q
*388 ring1\.genblk1\[4\]\.dcg\.b
*389 ring1\.genblk1\[4\]\.dcg\.q
*390 ring1\.genblk1\[5\]\.dcg\.b
*391 ring1\.genblk1\[5\]\.dcg\.q
*392 ring1\.genblk1\[6\]\.dcg\.b
*393 ring1\.genblk1\[6\]\.dcg\.q
*394 ring1\.genblk1\[7\]\.dcg\.b
*395 ring1\.genblk1\[7\]\.dcg\.q
*396 ring1\.genblk1\[8\]\.dcg\.b
*397 ring1\.genblk1\[8\]\.dcg\.q
*398 ring1\.genblk1\[9\]\.dcg\.b
*399 ring1\.inv_b\.A
*400 ring1\.ring_osc\.idelay\[0\]\.Y
*401 ring1\.ring_osc\.idelay\[100\]\.A
*402 ring1\.ring_osc\.idelay\[100\]\.Y
*403 ring1\.ring_osc\.idelay\[101\]\.Y
*404 ring1\.ring_osc\.idelay\[102\]\.Y
*405 ring1\.ring_osc\.idelay\[103\]\.Y
*406 ring1\.ring_osc\.idelay\[104\]\.Y
*407 ring1\.ring_osc\.idelay\[105\]\.Y
*408 ring1\.ring_osc\.idelay\[106\]\.Y
*409 ring1\.ring_osc\.idelay\[107\]\.Y
*410 ring1\.ring_osc\.idelay\[108\]\.Y
*411 ring1\.ring_osc\.idelay\[109\]\.Y
*412 ring1\.ring_osc\.idelay\[10\]\.A
*413 ring1\.ring_osc\.idelay\[10\]\.Y
*414 ring1\.ring_osc\.idelay\[110\]\.Y
*415 ring1\.ring_osc\.idelay\[111\]\.Y
*416 ring1\.ring_osc\.idelay\[112\]\.Y
*417 ring1\.ring_osc\.idelay\[113\]\.Y
*418 ring1\.ring_osc\.idelay\[114\]\.Y
*419 ring1\.ring_osc\.idelay\[115\]\.Y
*420 ring1\.ring_osc\.idelay\[116\]\.Y
*421 ring1\.ring_osc\.idelay\[117\]\.Y
*422 ring1\.ring_osc\.idelay\[118\]\.Y
*423 ring1\.ring_osc\.idelay\[119\]\.Y
*424 ring1\.ring_osc\.idelay\[11\]\.Y
*425 ring1\.ring_osc\.idelay\[120\]\.Y
*426 ring1\.ring_osc\.idelay\[121\]\.Y
*427 ring1\.ring_osc\.idelay\[122\]\.Y
*428 ring1\.ring_osc\.idelay\[123\]\.Y
*429 ring1\.ring_osc\.idelay\[124\]\.Y
*430 ring1\.ring_osc\.idelay\[125\]\.Y
*431 ring1\.ring_osc\.idelay\[126\]\.Y
*432 ring1\.ring_osc\.idelay\[127\]\.Y
*433 ring1\.ring_osc\.idelay\[128\]\.Y
*434 ring1\.ring_osc\.idelay\[129\]\.Y
*435 ring1\.ring_osc\.idelay\[12\]\.Y
*436 ring1\.ring_osc\.idelay\[130\]\.Y
*437 ring1\.ring_osc\.idelay\[131\]\.Y
*438 ring1\.ring_osc\.idelay\[132\]\.Y
*439 ring1\.ring_osc\.idelay\[133\]\.Y
*440 ring1\.ring_osc\.idelay\[134\]\.Y
*441 ring1\.ring_osc\.idelay\[135\]\.Y
*442 ring1\.ring_osc\.idelay\[136\]\.Y
*443 ring1\.ring_osc\.idelay\[137\]\.Y
*444 ring1\.ring_osc\.idelay\[138\]\.Y
*445 ring1\.ring_osc\.idelay\[139\]\.Y
*446 ring1\.ring_osc\.idelay\[13\]\.Y
*447 ring1\.ring_osc\.idelay\[140\]\.Y
*448 ring1\.ring_osc\.idelay\[141\]\.Y
*449 ring1\.ring_osc\.idelay\[142\]\.Y
*450 ring1\.ring_osc\.idelay\[143\]\.Y
*451 ring1\.ring_osc\.idelay\[144\]\.Y
*452 ring1\.ring_osc\.idelay\[145\]\.Y
*453 ring1\.ring_osc\.idelay\[146\]\.Y
*454 ring1\.ring_osc\.idelay\[147\]\.Y
*455 ring1\.ring_osc\.idelay\[148\]\.Y
*456 ring1\.ring_osc\.idelay\[149\]\.Y
*457 ring1\.ring_osc\.idelay\[14\]\.Y
*458 ring1\.ring_osc\.idelay\[15\]\.Y
*459 ring1\.ring_osc\.idelay\[16\]\.Y
*460 ring1\.ring_osc\.idelay\[17\]\.Y
*461 ring1\.ring_osc\.idelay\[18\]\.Y
*462 ring1\.ring_osc\.idelay\[19\]\.Y
*463 ring1\.ring_osc\.idelay\[1\]\.Y
*464 ring1\.ring_osc\.idelay\[20\]\.Y
*465 ring1\.ring_osc\.idelay\[21\]\.Y
*466 ring1\.ring_osc\.idelay\[22\]\.Y
*467 ring1\.ring_osc\.idelay\[23\]\.Y
*468 ring1\.ring_osc\.idelay\[24\]\.Y
*469 ring1\.ring_osc\.idelay\[25\]\.Y
*470 ring1\.ring_osc\.idelay\[26\]\.Y
*471 ring1\.ring_osc\.idelay\[27\]\.Y
*472 ring1\.ring_osc\.idelay\[28\]\.Y
*473 ring1\.ring_osc\.idelay\[29\]\.Y
*474 ring1\.ring_osc\.idelay\[2\]\.Y
*475 ring1\.ring_osc\.idelay\[30\]\.Y
*476 ring1\.ring_osc\.idelay\[31\]\.Y
*477 ring1\.ring_osc\.idelay\[32\]\.Y
*478 ring1\.ring_osc\.idelay\[33\]\.Y
*479 ring1\.ring_osc\.idelay\[34\]\.Y
*480 ring1\.ring_osc\.idelay\[35\]\.Y
*481 ring1\.ring_osc\.idelay\[36\]\.Y
*482 ring1\.ring_osc\.idelay\[37\]\.Y
*483 ring1\.ring_osc\.idelay\[38\]\.Y
*484 ring1\.ring_osc\.idelay\[39\]\.Y
*485 ring1\.ring_osc\.idelay\[3\]\.Y
*486 ring1\.ring_osc\.idelay\[40\]\.Y
*487 ring1\.ring_osc\.idelay\[41\]\.Y
*488 ring1\.ring_osc\.idelay\[42\]\.Y
*489 ring1\.ring_osc\.idelay\[43\]\.Y
*490 ring1\.ring_osc\.idelay\[44\]\.Y
*491 ring1\.ring_osc\.idelay\[45\]\.Y
*492 ring1\.ring_osc\.idelay\[46\]\.Y
*493 ring1\.ring_osc\.idelay\[47\]\.Y
*494 ring1\.ring_osc\.idelay\[48\]\.Y
*495 ring1\.ring_osc\.idelay\[49\]\.Y
*496 ring1\.ring_osc\.idelay\[4\]\.Y
*497 ring1\.ring_osc\.idelay\[50\]\.Y
*498 ring1\.ring_osc\.idelay\[51\]\.Y
*499 ring1\.ring_osc\.idelay\[52\]\.Y
*500 ring1\.ring_osc\.idelay\[53\]\.Y
*501 ring1\.ring_osc\.idelay\[54\]\.Y
*502 ring1\.ring_osc\.idelay\[55\]\.Y
*503 ring1\.ring_osc\.idelay\[56\]\.Y
*504 ring1\.ring_osc\.idelay\[57\]\.Y
*505 ring1\.ring_osc\.idelay\[58\]\.Y
*506 ring1\.ring_osc\.idelay\[59\]\.Y
*507 ring1\.ring_osc\.idelay\[5\]\.Y
*508 ring1\.ring_osc\.idelay\[60\]\.Y
*509 ring1\.ring_osc\.idelay\[61\]\.Y
*510 ring1\.ring_osc\.idelay\[62\]\.Y
*511 ring1\.ring_osc\.idelay\[63\]\.Y
*512 ring1\.ring_osc\.idelay\[64\]\.Y
*513 ring1\.ring_osc\.idelay\[65\]\.Y
*514 ring1\.ring_osc\.idelay\[66\]\.Y
*515 ring1\.ring_osc\.idelay\[67\]\.Y
*516 ring1\.ring_osc\.idelay\[68\]\.Y
*517 ring1\.ring_osc\.idelay\[69\]\.Y
*518 ring1\.ring_osc\.idelay\[6\]\.Y
*519 ring1\.ring_osc\.idelay\[70\]\.Y
*520 ring1\.ring_osc\.idelay\[71\]\.Y
*521 ring1\.ring_osc\.idelay\[72\]\.Y
*522 ring1\.ring_osc\.idelay\[73\]\.Y
*523 ring1\.ring_osc\.idelay\[74\]\.Y
*524 ring1\.ring_osc\.idelay\[75\]\.Y
*525 ring1\.ring_osc\.idelay\[76\]\.Y
*526 ring1\.ring_osc\.idelay\[77\]\.Y
*527 ring1\.ring_osc\.idelay\[78\]\.Y
*528 ring1\.ring_osc\.idelay\[79\]\.Y
*529 ring1\.ring_osc\.idelay\[7\]\.Y
*530 ring1\.ring_osc\.idelay\[80\]\.Y
*531 ring1\.ring_osc\.idelay\[81\]\.Y
*532 ring1\.ring_osc\.idelay\[82\]\.Y
*533 ring1\.ring_osc\.idelay\[83\]\.Y
*534 ring1\.ring_osc\.idelay\[84\]\.Y
*535 ring1\.ring_osc\.idelay\[85\]\.Y
*536 ring1\.ring_osc\.idelay\[86\]\.Y
*537 ring1\.ring_osc\.idelay\[87\]\.Y
*538 ring1\.ring_osc\.idelay\[88\]\.Y
*539 ring1\.ring_osc\.idelay\[89\]\.Y
*540 ring1\.ring_osc\.idelay\[8\]\.Y
*541 ring1\.ring_osc\.idelay\[90\]\.Y
*542 ring1\.ring_osc\.idelay\[91\]\.Y
*543 ring1\.ring_osc\.idelay\[92\]\.Y
*544 ring1\.ring_osc\.idelay\[93\]\.Y
*545 ring1\.ring_osc\.idelay\[94\]\.Y
*546 ring1\.ring_osc\.idelay\[95\]\.Y
*547 ring1\.ring_osc\.idelay\[96\]\.Y
*548 ring1\.ring_osc\.idelay\[97\]\.Y
*549 ring1\.ring_osc\.idelay\[98\]\.Y
*550 FILLER_0_100
*551 FILLER_0_107
*552 FILLER_0_111
*553 FILLER_0_113
*554 FILLER_0_120
*555 FILLER_0_132
*556 FILLER_0_141
*557 FILLER_0_150
*558 FILLER_0_162
*559 FILLER_0_172
*560 FILLER_0_184
*561 FILLER_0_197
*562 FILLER_0_209
*563 FILLER_0_221
*564 FILLER_0_225
*565 FILLER_0_23
*566 FILLER_0_237
*567 FILLER_0_249
*568 FILLER_0_253
*569 FILLER_0_265
*570 FILLER_0_27
*571 FILLER_0_277
*572 FILLER_0_281
*573 FILLER_0_29
*574 FILLER_0_293
*575 FILLER_0_52
*576 FILLER_0_57
*577 FILLER_0_66
*578 FILLER_0_73
*579 FILLER_0_80
*580 FILLER_0_85
*581 FILLER_0_89
*582 FILLER_0_93
*583 FILLER_10_114
*584 FILLER_10_123
*585 FILLER_10_131
*586 FILLER_10_136
*587 FILLER_10_141
*588 FILLER_10_145
*589 FILLER_10_15
*590 FILLER_10_152
*591 FILLER_10_159
*592 FILLER_10_166
*593 FILLER_10_173
*594 FILLER_10_185
*595 FILLER_10_193
*596 FILLER_10_197
*597 FILLER_10_201
*598 FILLER_10_205
*599 FILLER_10_212
*600 FILLER_10_219
*601 FILLER_10_231
*602 FILLER_10_24
*603 FILLER_10_243
*604 FILLER_10_251
*605 FILLER_10_253
*606 FILLER_10_265
*607 FILLER_10_277
*608 FILLER_10_289
*609 FILLER_10_29
*610 FILLER_10_297
*611 FILLER_10_36
*612 FILLER_10_43
*613 FILLER_10_50
*614 FILLER_10_57
*615 FILLER_10_6
*616 FILLER_10_61
*617 FILLER_10_65
*618 FILLER_10_69
*619 FILLER_10_73
*620 FILLER_10_80
*621 FILLER_10_85
*622 FILLER_10_89
*623 FILLER_11_101
*624 FILLER_11_108
*625 FILLER_11_113
*626 FILLER_11_12
*627 FILLER_11_122
*628 FILLER_11_147
*629 FILLER_11_153
*630 FILLER_11_157
*631 FILLER_11_164
*632 FILLER_11_169
*633 FILLER_11_181
*634 FILLER_11_193
*635 FILLER_11_197
*636 FILLER_11_201
*637 FILLER_11_208
*638 FILLER_11_215
*639 FILLER_11_223
*640 FILLER_11_225
*641 FILLER_11_237
*642 FILLER_11_249
*643 FILLER_11_25
*644 FILLER_11_261
*645 FILLER_11_273
*646 FILLER_11_279
*647 FILLER_11_281
*648 FILLER_11_293
*649 FILLER_11_3
*650 FILLER_11_31
*651 FILLER_11_35
*652 FILLER_11_41
*653 FILLER_11_45
*654 FILLER_11_52
*655 FILLER_11_64
*656 FILLER_11_71
*657 FILLER_11_83
*658 FILLER_11_87
*659 FILLER_11_94
*660 FILLER_12_10
*661 FILLER_12_121
*662 FILLER_12_125
*663 FILLER_12_129
*664 FILLER_12_136
*665 FILLER_12_141
*666 FILLER_12_145
*667 FILLER_12_149
*668 FILLER_12_161
*669 FILLER_12_17
*670 FILLER_12_173
*671 FILLER_12_185
*672 FILLER_12_193
*673 FILLER_12_200
*674 FILLER_12_207
*675 FILLER_12_214
*676 FILLER_12_226
*677 FILLER_12_238
*678 FILLER_12_24
*679 FILLER_12_250
*680 FILLER_12_253
*681 FILLER_12_265
*682 FILLER_12_277
*683 FILLER_12_289
*684 FILLER_12_29
*685 FILLER_12_297
*686 FILLER_12_3
*687 FILLER_12_38
*688 FILLER_12_63
*689 FILLER_12_75
*690 FILLER_12_83
*691 FILLER_12_85
*692 FILLER_12_97
*693 FILLER_13_102
*694 FILLER_13_107
*695 FILLER_13_111
*696 FILLER_13_113
*697 FILLER_13_121
*698 FILLER_13_128
*699 FILLER_13_136
*700 FILLER_13_159
*701 FILLER_13_167
*702 FILLER_13_169
*703 FILLER_13_18
*704 FILLER_13_181
*705 FILLER_13_193
*706 FILLER_13_198
*707 FILLER_13_205
*708 FILLER_13_212
*709 FILLER_13_225
*710 FILLER_13_237
*711 FILLER_13_249
*712 FILLER_13_25
*713 FILLER_13_261
*714 FILLER_13_273
*715 FILLER_13_279
*716 FILLER_13_281
*717 FILLER_13_293
*718 FILLER_13_3
*719 FILLER_13_32
*720 FILLER_13_39
*721 FILLER_13_46
*722 FILLER_13_54
*723 FILLER_13_64
*724 FILLER_13_68
*725 FILLER_13_72
*726 FILLER_13_79
*727 FILLER_13_83
*728 FILLER_13_87
*729 FILLER_13_9
*730 FILLER_13_94
*731 FILLER_14_101
*732 FILLER_14_108
*733 FILLER_14_115
*734 FILLER_14_122
*735 FILLER_14_129
*736 FILLER_14_136
*737 FILLER_14_141
*738 FILLER_14_153
*739 FILLER_14_165
*740 FILLER_14_17
*741 FILLER_14_177
*742 FILLER_14_189
*743 FILLER_14_195
*744 FILLER_14_200
*745 FILLER_14_207
*746 FILLER_14_214
*747 FILLER_14_226
*748 FILLER_14_238
*749 FILLER_14_24
*750 FILLER_14_250
*751 FILLER_14_253
*752 FILLER_14_265
*753 FILLER_14_277
*754 FILLER_14_289
*755 FILLER_14_297
*756 FILLER_14_32
*757 FILLER_14_43
*758 FILLER_14_50
*759 FILLER_14_58
*760 FILLER_14_6
*761 FILLER_14_62
*762 FILLER_14_66
*763 FILLER_14_73
*764 FILLER_14_80
*765 FILLER_14_85
*766 FILLER_14_94
*767 FILLER_15_101
*768 FILLER_15_109
*769 FILLER_15_116
*770 FILLER_15_123
*771 FILLER_15_127
*772 FILLER_15_131
*773 FILLER_15_138
*774 FILLER_15_14
*775 FILLER_15_145
*776 FILLER_15_149
*777 FILLER_15_153
*778 FILLER_15_160
*779 FILLER_15_172
*780 FILLER_15_183
*781 FILLER_15_190
*782 FILLER_15_197
*783 FILLER_15_204
*784 FILLER_15_211
*785 FILLER_15_223
*786 FILLER_15_225
*787 FILLER_15_237
*788 FILLER_15_249
*789 FILLER_15_261
*790 FILLER_15_27
*791 FILLER_15_273
*792 FILLER_15_279
*793 FILLER_15_281
*794 FILLER_15_293
*795 FILLER_15_3
*796 FILLER_15_35
*797 FILLER_15_39
*798 FILLER_15_51
*799 FILLER_15_55
*800 FILLER_15_57
*801 FILLER_15_65
*802 FILLER_15_7
*803 FILLER_15_73
*804 FILLER_15_77
*805 FILLER_15_84
*806 FILLER_15_91
*807 FILLER_15_97
*808 FILLER_16_106
*809 FILLER_16_129
*810 FILLER_16_13
*811 FILLER_16_136
*812 FILLER_16_141
*813 FILLER_16_145
*814 FILLER_16_152
*815 FILLER_16_159
*816 FILLER_16_166
*817 FILLER_16_173
*818 FILLER_16_180
*819 FILLER_16_187
*820 FILLER_16_195
*821 FILLER_16_20
*822 FILLER_16_200
*823 FILLER_16_207
*824 FILLER_16_214
*825 FILLER_16_226
*826 FILLER_16_238
*827 FILLER_16_250
*828 FILLER_16_253
*829 FILLER_16_265
*830 FILLER_16_277
*831 FILLER_16_289
*832 FILLER_16_297
*833 FILLER_16_32
*834 FILLER_16_39
*835 FILLER_16_51
*836 FILLER_16_66
*837 FILLER_16_70
*838 FILLER_16_74
*839 FILLER_16_82
*840 FILLER_16_85
*841 FILLER_16_94
*842 FILLER_17_106
*843 FILLER_17_113
*844 FILLER_17_119
*845 FILLER_17_124
*846 FILLER_17_136
*847 FILLER_17_144
*848 FILLER_17_148
*849 FILLER_17_155
*850 FILLER_17_16
*851 FILLER_17_167
*852 FILLER_17_172
*853 FILLER_17_179
*854 FILLER_17_186
*855 FILLER_17_193
*856 FILLER_17_200
*857 FILLER_17_207
*858 FILLER_17_219
*859 FILLER_17_22
*860 FILLER_17_223
*861 FILLER_17_225
*862 FILLER_17_237
*863 FILLER_17_249
*864 FILLER_17_26
*865 FILLER_17_261
*866 FILLER_17_273
*867 FILLER_17_279
*868 FILLER_17_281
*869 FILLER_17_293
*870 FILLER_17_3
*871 FILLER_17_39
*872 FILLER_17_46
*873 FILLER_17_54
*874 FILLER_17_57
*875 FILLER_17_63
*876 FILLER_17_70
*877 FILLER_17_82
*878 FILLER_17_94
*879 FILLER_18_109
*880 FILLER_18_121
*881 FILLER_18_133
*882 FILLER_18_139
*883 FILLER_18_141
*884 FILLER_18_153
*885 FILLER_18_165
*886 FILLER_18_18
*887 FILLER_18_192
*888 FILLER_18_200
*889 FILLER_18_212
*890 FILLER_18_224
*891 FILLER_18_236
*892 FILLER_18_248
*893 FILLER_18_253
*894 FILLER_18_26
*895 FILLER_18_265
*896 FILLER_18_277
*897 FILLER_18_289
*898 FILLER_18_29
*899 FILLER_18_297
*900 FILLER_18_3
*901 FILLER_18_42
*902 FILLER_18_54
*903 FILLER_18_62
*904 FILLER_18_7
*905 FILLER_18_72
*906 FILLER_18_79
*907 FILLER_18_83
*908 FILLER_18_85
*909 FILLER_18_97
*910 FILLER_19_102
*911 FILLER_19_110
*912 FILLER_19_134
*913 FILLER_19_138
*914 FILLER_19_146
*915 FILLER_19_158
*916 FILLER_19_166
*917 FILLER_19_169
*918 FILLER_19_181
*919 FILLER_19_193
*920 FILLER_19_205
*921 FILLER_19_217
*922 FILLER_19_223
*923 FILLER_19_225
*924 FILLER_19_237
*925 FILLER_19_249
*926 FILLER_19_25
*927 FILLER_19_261
*928 FILLER_19_273
*929 FILLER_19_279
*930 FILLER_19_281
*931 FILLER_19_293
*932 FILLER_19_3
*933 FILLER_19_32
*934 FILLER_19_39
*935 FILLER_19_51
*936 FILLER_19_55
*937 FILLER_19_57
*938 FILLER_19_69
*939 FILLER_19_78
*940 FILLER_19_90
*941 FILLER_1_101
*942 FILLER_1_108
*943 FILLER_1_113
*944 FILLER_1_117
*945 FILLER_1_121
*946 FILLER_1_128
*947 FILLER_1_135
*948 FILLER_1_142
*949 FILLER_1_149
*950 FILLER_1_156
*951 FILLER_1_163
*952 FILLER_1_167
*953 FILLER_1_172
*954 FILLER_1_179
*955 FILLER_1_191
*956 FILLER_1_203
*957 FILLER_1_215
*958 FILLER_1_223
*959 FILLER_1_225
*960 FILLER_1_23
*961 FILLER_1_237
*962 FILLER_1_249
*963 FILLER_1_261
*964 FILLER_1_273
*965 FILLER_1_279
*966 FILLER_1_281
*967 FILLER_1_293
*968 FILLER_1_35
*969 FILLER_1_41
*970 FILLER_1_45
*971 FILLER_1_52
*972 FILLER_1_57
*973 FILLER_1_66
*974 FILLER_1_73
*975 FILLER_1_80
*976 FILLER_1_87
*977 FILLER_1_94
*978 FILLER_20_100
*979 FILLER_20_108
*980 FILLER_20_13
*981 FILLER_20_130
*982 FILLER_20_138
*983 FILLER_20_141
*984 FILLER_20_153
*985 FILLER_20_180
*986 FILLER_20_192
*987 FILLER_20_197
*988 FILLER_20_20
*989 FILLER_20_209
*990 FILLER_20_221
*991 FILLER_20_233
*992 FILLER_20_245
*993 FILLER_20_251
*994 FILLER_20_253
*995 FILLER_20_265
*996 FILLER_20_277
*997 FILLER_20_289
*998 FILLER_20_29
*999 FILLER_20_297
*1000 FILLER_20_36
*1001 FILLER_20_48
*1002 FILLER_20_59
*1003 FILLER_20_65
*1004 FILLER_20_69
*1005 FILLER_20_80
*1006 FILLER_20_88
*1007 FILLER_21_111
*1008 FILLER_21_113
*1009 FILLER_21_125
*1010 FILLER_21_137
*1011 FILLER_21_149
*1012 FILLER_21_15
*1013 FILLER_21_161
*1014 FILLER_21_167
*1015 FILLER_21_169
*1016 FILLER_21_177
*1017 FILLER_21_204
*1018 FILLER_21_216
*1019 FILLER_21_225
*1020 FILLER_21_237
*1021 FILLER_21_249
*1022 FILLER_21_261
*1023 FILLER_21_273
*1024 FILLER_21_279
*1025 FILLER_21_281
*1026 FILLER_21_293
*1027 FILLER_21_3
*1028 FILLER_21_30
*1029 FILLER_21_39
*1030 FILLER_21_43
*1031 FILLER_21_47
*1032 FILLER_21_55
*1033 FILLER_21_61
*1034 FILLER_21_75
*1035 FILLER_21_8
*1036 FILLER_21_87
*1037 FILLER_21_99
*1038 FILLER_22_103
*1039 FILLER_22_115
*1040 FILLER_22_127
*1041 FILLER_22_139
*1042 FILLER_22_141
*1043 FILLER_22_15
*1044 FILLER_22_153
*1045 FILLER_22_165
*1046 FILLER_22_177
*1047 FILLER_22_189
*1048 FILLER_22_195
*1049 FILLER_22_197
*1050 FILLER_22_209
*1051 FILLER_22_221
*1052 FILLER_22_233
*1053 FILLER_22_245
*1054 FILLER_22_251
*1055 FILLER_22_253
*1056 FILLER_22_265
*1057 FILLER_22_27
*1058 FILLER_22_277
*1059 FILLER_22_289
*1060 FILLER_22_297
*1061 FILLER_22_3
*1062 FILLER_22_37
*1063 FILLER_22_50
*1064 FILLER_22_57
*1065 FILLER_22_68
*1066 FILLER_22_75
*1067 FILLER_22_83
*1068 FILLER_22_85
*1069 FILLER_22_93
*1070 FILLER_23_10
*1071 FILLER_23_108
*1072 FILLER_23_113
*1073 FILLER_23_125
*1074 FILLER_23_137
*1075 FILLER_23_150
*1076 FILLER_23_162
*1077 FILLER_23_169
*1078 FILLER_23_18
*1079 FILLER_23_181
*1080 FILLER_23_193
*1081 FILLER_23_205
*1082 FILLER_23_217
*1083 FILLER_23_223
*1084 FILLER_23_225
*1085 FILLER_23_237
*1086 FILLER_23_249
*1087 FILLER_23_261
*1088 FILLER_23_273
*1089 FILLER_23_279
*1090 FILLER_23_28
*1091 FILLER_23_281
*1092 FILLER_23_293
*1093 FILLER_23_36
*1094 FILLER_23_43
*1095 FILLER_23_50
*1096 FILLER_23_6
*1097 FILLER_23_60
*1098 FILLER_23_72
*1099 FILLER_23_84
*1100 FILLER_23_96
*1101 FILLER_24_122
*1102 FILLER_24_134
*1103 FILLER_24_141
*1104 FILLER_24_153
*1105 FILLER_24_165
*1106 FILLER_24_177
*1107 FILLER_24_189
*1108 FILLER_24_195
*1109 FILLER_24_197
*1110 FILLER_24_209
*1111 FILLER_24_221
*1112 FILLER_24_23
*1113 FILLER_24_233
*1114 FILLER_24_245
*1115 FILLER_24_251
*1116 FILLER_24_253
*1117 FILLER_24_265
*1118 FILLER_24_27
*1119 FILLER_24_277
*1120 FILLER_24_289
*1121 FILLER_24_29
*1122 FILLER_24_297
*1123 FILLER_24_33
*1124 FILLER_24_44
*1125 FILLER_24_53
*1126 FILLER_24_59
*1127 FILLER_24_63
*1128 FILLER_24_75
*1129 FILLER_24_83
*1130 FILLER_24_85
*1131 FILLER_24_97
*1132 FILLER_25_101
*1133 FILLER_25_109
*1134 FILLER_25_11
*1135 FILLER_25_113
*1136 FILLER_25_125
*1137 FILLER_25_137
*1138 FILLER_25_149
*1139 FILLER_25_161
*1140 FILLER_25_167
*1141 FILLER_25_169
*1142 FILLER_25_181
*1143 FILLER_25_19
*1144 FILLER_25_193
*1145 FILLER_25_205
*1146 FILLER_25_217
*1147 FILLER_25_223
*1148 FILLER_25_225
*1149 FILLER_25_237
*1150 FILLER_25_249
*1151 FILLER_25_261
*1152 FILLER_25_273
*1153 FILLER_25_279
*1154 FILLER_25_281
*1155 FILLER_25_293
*1156 FILLER_25_3
*1157 FILLER_25_30
*1158 FILLER_25_44
*1159 FILLER_25_48
*1160 FILLER_25_52
*1161 FILLER_25_57
*1162 FILLER_25_65
*1163 FILLER_25_77
*1164 FILLER_25_89
*1165 FILLER_26_104
*1166 FILLER_26_116
*1167 FILLER_26_128
*1168 FILLER_26_141
*1169 FILLER_26_149
*1170 FILLER_26_157
*1171 FILLER_26_169
*1172 FILLER_26_181
*1173 FILLER_26_193
*1174 FILLER_26_20
*1175 FILLER_26_218
*1176 FILLER_26_230
*1177 FILLER_26_242
*1178 FILLER_26_250
*1179 FILLER_26_253
*1180 FILLER_26_265
*1181 FILLER_26_277
*1182 FILLER_26_289
*1183 FILLER_26_29
*1184 FILLER_26_297
*1185 FILLER_26_3
*1186 FILLER_26_35
*1187 FILLER_26_44
*1188 FILLER_26_61
*1189 FILLER_26_69
*1190 FILLER_26_75
*1191 FILLER_26_83
*1192 FILLER_26_85
*1193 FILLER_26_9
*1194 FILLER_26_92
*1195 FILLER_27_10
*1196 FILLER_27_111
*1197 FILLER_27_113
*1198 FILLER_27_125
*1199 FILLER_27_137
*1200 FILLER_27_149
*1201 FILLER_27_161
*1202 FILLER_27_167
*1203 FILLER_27_169
*1204 FILLER_27_181
*1205 FILLER_27_204
*1206 FILLER_27_21
*1207 FILLER_27_216
*1208 FILLER_27_225
*1209 FILLER_27_237
*1210 FILLER_27_249
*1211 FILLER_27_261
*1212 FILLER_27_273
*1213 FILLER_27_279
*1214 FILLER_27_281
*1215 FILLER_27_29
*1216 FILLER_27_293
*1217 FILLER_27_40
*1218 FILLER_27_50
*1219 FILLER_27_6
*1220 FILLER_27_62
*1221 FILLER_27_74
*1222 FILLER_27_87
*1223 FILLER_27_99
*1224 FILLER_28_101
*1225 FILLER_28_113
*1226 FILLER_28_125
*1227 FILLER_28_137
*1228 FILLER_28_141
*1229 FILLER_28_151
*1230 FILLER_28_163
*1231 FILLER_28_175
*1232 FILLER_28_187
*1233 FILLER_28_195
*1234 FILLER_28_197
*1235 FILLER_28_205
*1236 FILLER_28_21
*1237 FILLER_28_217
*1238 FILLER_28_229
*1239 FILLER_28_241
*1240 FILLER_28_249
*1241 FILLER_28_253
*1242 FILLER_28_265
*1243 FILLER_28_27
*1244 FILLER_28_277
*1245 FILLER_28_289
*1246 FILLER_28_29
*1247 FILLER_28_297
*1248 FILLER_28_3
*1249 FILLER_28_41
*1250 FILLER_28_53
*1251 FILLER_28_57
*1252 FILLER_28_63
*1253 FILLER_28_72
*1254 FILLER_28_85
*1255 FILLER_28_93
*1256 FILLER_29_107
*1257 FILLER_29_111