*SPEF "ieee 1481-1999"
*DESIGN "femto_top"
*DATE "11:11:11 Fri 11 11, 1111"
*VENDOR "OpenRCX"
*PROGRAM "Parallel Extraction"
*VERSION "1.0"
*DESIGN_FLOW "NAME_SCOPE LOCAL" "PIN_CAP NONE"
*DIVIDER /
*DELIMITER :
*BUS_DELIMITER []
*T_UNIT 1 NS
*C_UNIT 1 PF
*R_UNIT 1 OHM
*L_UNIT 1 HENRY

*NAME_MAP
*1 io_in[0]
*2 io_in[1]
*3 io_in[2]
*4 io_in[3]
*5 io_in[4]
*6 io_in[5]
*7 io_in[6]
*8 io_in[7]
*9 io_out[0]
*10 io_out[1]
*11 io_out[2]
*12 io_out[3]
*13 io_out[4]
*14 io_out[5]
*15 io_out[6]
*16 net8
*19 _000_
*20 _001_
*21 _002_
*22 _003_
*23 _004_
*24 _005_
*25 _006_
*26 _007_
*27 _008_
*28 _009_
*29 _010_
*30 _011_
*31 _012_
*32 _013_
*33 _014_
*34 _015_
*35 _016_
*36 _017_
*37 _018_
*38 _019_
*39 _020_
*40 _021_
*41 _022_
*42 _023_
*43 _024_
*44 _025_
*45 _026_
*46 _027_
*47 _028_
*48 _029_
*49 _030_
*50 _031_
*51 _032_
*52 _033_
*53 _034_
*54 _035_
*55 _036_
*56 _037_
*57 _038_
*58 _039_
*59 _040_
*60 _041_
*61 _042_
*62 _043_
*63 _044_
*64 _045_
*65 _046_
*66 _047_
*67 _048_
*68 _049_
*69 _050_
*70 _051_
*71 _052_
*72 _053_
*73 _054_
*74 _055_
*75 _056_
*76 _057_
*77 _058_
*78 _059_
*79 _060_
*80 _061_
*81 _062_
*82 _063_
*83 _064_
*84 _065_
*85 _066_
*86 _067_
*87 _068_
*88 _069_
*89 _070_
*90 _071_
*91 _072_
*92 _073_
*93 _074_
*94 _075_
*95 _076_
*96 _077_
*97 _078_
*98 _079_
*99 _080_
*100 _081_
*101 _082_
*102 _083_
*103 _084_
*104 _085_
*105 _086_
*106 _087_
*107 _088_
*108 _089_
*109 _090_
*110 _091_
*111 _092_
*112 _093_
*113 _094_
*114 _095_
*115 _096_
*116 _097_
*117 _098_
*118 _099_
*119 _100_
*120 _101_
*121 _102_
*122 _103_
*123 _104_
*124 _105_
*125 _106_
*126 _107_
*127 _108_
*128 _109_
*129 _110_
*130 _111_
*131 _112_
*132 _113_
*133 _114_
*134 _115_
*135 _116_
*136 _117_
*137 _118_
*138 _119_
*139 _120_
*140 _121_
*141 _122_
*142 _123_
*143 _124_
*144 _125_
*145 _126_
*146 _127_
*147 _128_
*148 _129_
*149 _130_
*150 _131_
*151 _132_
*152 _133_
*153 _134_
*154 _135_
*155 _136_
*156 _137_
*157 _138_
*158 _139_
*159 _140_
*160 _141_
*161 _142_
*162 _143_
*163 _144_
*164 _145_
*165 _146_
*166 _147_
*167 _148_
*168 _149_
*169 _150_
*170 _151_
*171 _152_
*172 _153_
*173 _154_
*174 _155_
*175 _156_
*176 _157_
*177 _158_
*178 _159_
*179 _160_
*180 _161_
*181 _162_
*182 _163_
*183 _164_
*184 _165_
*185 _166_
*186 _167_
*187 _168_
*188 _169_
*189 _170_
*190 _171_
*191 _172_
*192 _173_
*193 _174_
*194 _175_
*195 _176_
*196 _177_
*197 _178_
*198 _179_
*199 _180_
*200 _181_
*201 _182_
*202 _183_
*203 _184_
*204 _185_
*205 _186_
*206 _187_
*207 _188_
*208 _189_
*209 _190_
*210 _191_
*211 _192_
*212 _193_
*213 _194_
*214 _195_
*215 _196_
*216 _197_
*217 _198_
*218 _199_
*219 _200_
*220 _201_
*221 _202_
*222 _203_
*223 _204_
*224 _205_
*225 _206_
*226 _207_
*227 _208_
*228 _209_
*229 _210_
*230 _211_
*231 _212_
*232 _213_
*233 _214_
*234 _215_
*235 _216_
*236 _217_
*237 _218_
*238 _219_
*239 _220_
*240 _221_
*241 _222_
*242 _223_
*243 _224_
*244 _225_
*245 _226_
*246 _227_
*247 _228_
*248 _229_
*249 _230_
*250 _231_
*251 _232_
*252 _233_
*253 _234_
*254 _235_
*255 _236_
*256 _237_
*257 _238_
*258 _239_
*259 _240_
*260 _241_
*261 _242_
*262 _243_
*263 _244_
*264 _245_
*265 _246_
*266 _247_
*267 _248_
*268 _249_
*269 _250_
*270 _251_
*271 _252_
*272 _253_
*273 _254_
*274 _255_
*275 _256_
*276 _257_
*277 _258_
*278 _259_
*279 _260_
*280 _261_
*281 _262_
*282 _263_
*283 _264_
*284 _265_
*285 _266_
*286 _267_
*287 _268_
*288 _269_
*289 _270_
*290 _271_
*291 _272_
*292 alu\.acc\[0\]
*293 alu\.acc\[1\]
*294 alu\.acc\[2\]
*295 alu\.acc\[3\]
*296 alu\.op\[0\]
*297 alu\.op\[1\]
*298 alu\.op\[2\]
*299 clknet_0_io_in[0]
*300 clknet_3_0__leaf_io_in[0]
*301 clknet_3_1__leaf_io_in[0]
*302 clknet_3_2__leaf_io_in[0]
*303 clknet_3_3__leaf_io_in[0]
*304 clknet_3_4__leaf_io_in[0]
*305 clknet_3_5__leaf_io_in[0]
*306 clknet_3_6__leaf_io_in[0]
*307 clknet_3_7__leaf_io_in[0]
*308 ibuf\.ibuffer_inst\[0\]\[0\]
*309 ibuf\.ibuffer_inst\[0\]\[1\]
*310 ibuf\.ibuffer_inst\[0\]\[2\]
*311 ibuf\.ibuffer_inst\[0\]\[3\]
*312 ibuf\.ibuffer_inst\[0\]\[4\]
*313 ibuf\.ibuffer_inst\[0\]\[5\]
*314 ibuf\.ibuffer_inst\[0\]\[6\]
*315 ibuf\.ibuffer_inst\[1\]\[0\]
*316 ibuf\.ibuffer_inst\[1\]\[1\]
*317 ibuf\.ibuffer_inst\[1\]\[2\]
*318 ibuf\.ibuffer_inst\[1\]\[3\]
*319 ibuf\.ibuffer_inst\[1\]\[4\]
*320 ibuf\.ibuffer_inst\[1\]\[5\]
*321 ibuf\.ibuffer_inst\[1\]\[6\]
*322 ibuf\.ibuffer_inst\[2\]\[0\]
*323 ibuf\.ibuffer_inst\[2\]\[1\]
*324 ibuf\.ibuffer_inst\[2\]\[2\]
*325 ibuf\.ibuffer_inst\[2\]\[3\]
*326 ibuf\.ibuffer_inst\[2\]\[4\]
*327 ibuf\.ibuffer_inst\[2\]\[5\]
*328 ibuf\.ibuffer_inst\[2\]\[6\]
*329 ibuf\.ibuffer_inst\[3\]\[0\]
*330 ibuf\.ibuffer_inst\[3\]\[1\]
*331 ibuf\.ibuffer_inst\[3\]\[2\]
*332 ibuf\.ibuffer_inst\[3\]\[3\]
*333 ibuf\.ibuffer_inst\[3\]\[4\]
*334 ibuf\.ibuffer_inst\[3\]\[5\]
*335 ibuf\.ibuffer_inst\[3\]\[6\]
*336 ibuf\.ibuffer_inst\[4\]\[0\]
*337 ibuf\.ibuffer_inst\[4\]\[1\]
*338 ibuf\.ibuffer_inst\[4\]\[2\]
*339 ibuf\.ibuffer_inst\[4\]\[3\]
*340 ibuf\.ibuffer_inst\[4\]\[4\]
*341 ibuf\.ibuffer_inst\[4\]\[5\]
*342 ibuf\.ibuffer_inst\[4\]\[6\]
*343 ibuf\.ibuffer_inst\[5\]\[0\]
*344 ibuf\.ibuffer_inst\[5\]\[1\]
*345 ibuf\.ibuffer_inst\[5\]\[2\]
*346 ibuf\.ibuffer_inst\[5\]\[3\]
*347 ibuf\.ibuffer_inst\[5\]\[4\]
*348 ibuf\.ibuffer_inst\[5\]\[5\]
*349 ibuf\.ibuffer_inst\[5\]\[6\]
*350 ibuf\.instr_out\[3\]
*351 ibuf\.instr_out\[4\]
*352 ibuf\.instr_out\[5\]
*353 ibuf\.instr_out\[6\]
*354 ibuf\.rden
*355 mode\[1\]
*356 net1
*357 net2
*358 net3
*359 net4
*360 net5
*361 net6
*362 net7
*363 rf\.regfile\[0\]\[0\]
*364 rf\.regfile\[0\]\[1\]
*365 rf\.regfile\[0\]\[2\]
*366 rf\.regfile\[0\]\[3\]
*367 rf\.regfile\[1\]\[0\]
*368 rf\.regfile\[1\]\[1\]
*369 rf\.regfile\[1\]\[2\]
*370 rf\.regfile\[1\]\[3\]
*371 rf\.regfile\[2\]\[0\]
*372 rf\.regfile\[2\]\[1\]
*373 rf\.regfile\[2\]\[2\]
*374 rf\.regfile\[2\]\[3\]
*375 rf\.regfile\[3\]\[0\]
*376 rf\.regfile\[3\]\[1\]
*377 rf\.regfile\[3\]\[2\]
*378 rf\.regfile\[3\]\[3\]
*379 seg\.value\[0\]
*380 seg\.value\[1\]
*381 seg\.value\[2\]
*382 seg\.value\[3\]
*383 ANTENNA_0
*384 ANTENNA_1
*385 ANTENNA_2
*386 ANTENNA_3
*387 ANTENNA_4
*388 ANTENNA_5
*389 ANTENNA_6
*390 FILLER_0_129
*391 FILLER_0_136
*392 FILLER_0_157
*393 FILLER_0_164
*394 FILLER_0_169
*395 FILLER_0_177
*396 FILLER_0_189
*397 FILLER_0_19
*398 FILLER_0_195
*399 FILLER_0_197
*400 FILLER_0_209
*401 FILLER_0_221
*402 FILLER_0_225
*403 FILLER_0_23
*404 FILLER_0_237
*405 FILLER_0_249
*406 FILLER_0_253
*407 FILLER_0_265
*408 FILLER_0_27
*409 FILLER_0_277
*410 FILLER_0_281
*411 FILLER_0_29
*412 FILLER_0_293
*413 FILLER_0_52
*414 FILLER_0_57
*415 FILLER_0_65
*416 FILLER_0_85
*417 FILLER_0_93
*418 FILLER_10_109
*419 FILLER_10_121
*420 FILLER_10_133
*421 FILLER_10_139
*422 FILLER_10_141
*423 FILLER_10_153
*424 FILLER_10_165
*425 FILLER_10_176
*426 FILLER_10_185
*427 FILLER_10_193
*428 FILLER_10_202
*429 FILLER_10_214
*430 FILLER_10_222
*431 FILLER_10_234
*432 FILLER_10_24
*433 FILLER_10_246
*434 FILLER_10_253
*435 FILLER_10_265
*436 FILLER_10_277
*437 FILLER_10_289
*438 FILLER_10_29
*439 FILLER_10_297
*440 FILLER_10_3
*441 FILLER_10_33
*442 FILLER_10_51
*443 FILLER_10_7
*444 FILLER_10_79
*445 FILLER_10_83
*446 FILLER_10_85
*447 FILLER_11_105
*448 FILLER_11_111
*449 FILLER_11_113
*450 FILLER_11_124
*451 FILLER_11_135
*452 FILLER_11_143
*453 FILLER_11_155
*454 FILLER_11_167
*455 FILLER_11_169
*456 FILLER_11_181
*457 FILLER_11_193
*458 FILLER_11_201
*459 FILLER_11_206
*460 FILLER_11_218
*461 FILLER_11_225
*462 FILLER_11_237
*463 FILLER_11_248
*464 FILLER_11_255
*465 FILLER_11_267
*466 FILLER_11_272
*467 FILLER_11_28
*468 FILLER_11_281
*469 FILLER_11_293
*470 FILLER_11_3
*471 FILLER_11_48
*472 FILLER_11_57
*473 FILLER_11_69
*474 FILLER_11_8
*475 FILLER_11_93
*476 FILLER_12_103
*477 FILLER_12_115
*478 FILLER_12_121
*479 FILLER_12_133
*480 FILLER_12_139
*481 FILLER_12_146
*482 FILLER_12_163
*483 FILLER_12_175
*484 FILLER_12_187
*485 FILLER_12_19
*486 FILLER_12_195
*487 FILLER_12_197
*488 FILLER_12_209
*489 FILLER_12_221
*490 FILLER_12_233
*491 FILLER_12_245
*492 FILLER_12_251
*493 FILLER_12_253
*494 FILLER_12_265
*495 FILLER_12_27
*496 FILLER_12_277
*497 FILLER_12_289
*498 FILLER_12_29
*499 FILLER_12_297
*500 FILLER_12_41
*501 FILLER_12_60
*502 FILLER_12_80
*503 FILLER_12_85
*504 FILLER_13_101
*505 FILLER_13_109
*506 FILLER_13_121
*507 FILLER_13_127
*508 FILLER_13_149
*509 FILLER_13_161
*510 FILLER_13_167
*511 FILLER_13_169
*512 FILLER_13_181
*513 FILLER_13_185
*514 FILLER_13_19
*515 FILLER_13_200
*516 FILLER_13_212
*517 FILLER_13_228
*518 FILLER_13_23
*519 FILLER_13_240
*520 FILLER_13_252
*521 FILLER_13_264
*522 FILLER_13_276
*523 FILLER_13_281
*524 FILLER_13_293
*525 FILLER_13_40
*526 FILLER_13_52
*527 FILLER_13_57
*528 FILLER_13_61
*529 FILLER_13_78
*530 FILLER_13_84
*531 FILLER_14_101
*532 FILLER_14_113
*533 FILLER_14_125
*534 FILLER_14_137
*535 FILLER_14_141
*536 FILLER_14_153
*537 FILLER_14_165
*538 FILLER_14_177
*539 FILLER_14_189
*540 FILLER_14_195
*541 FILLER_14_197
*542 FILLER_14_20
*543 FILLER_14_209
*544 FILLER_14_221
*545 FILLER_14_232
*546 FILLER_14_244
*547 FILLER_14_253
*548 FILLER_14_265
*549 FILLER_14_277
*550 FILLER_14_289
*551 FILLER_14_29
*552 FILLER_14_297
*553 FILLER_14_3
*554 FILLER_14_37
*555 FILLER_14_56
*556 FILLER_14_76
*557 FILLER_15_100
*558 FILLER_15_113
*559 FILLER_15_125
*560 FILLER_15_137
*561 FILLER_15_142
*562 FILLER_15_146
*563 FILLER_15_155
*564 FILLER_15_167
*565 FILLER_15_169
*566 FILLER_15_19
*567 FILLER_15_190
*568 FILLER_15_202
*569 FILLER_15_214
*570 FILLER_15_222
*571 FILLER_15_234
*572 FILLER_15_246
*573 FILLER_15_258
*574 FILLER_15_262
*575 FILLER_15_265
*576 FILLER_15_27
*577 FILLER_15_276
*578 FILLER_15_281
*579 FILLER_15_293
*580 FILLER_15_45
*581 FILLER_15_53
*582 FILLER_15_57
*583 FILLER_15_76
*584 FILLER_15_88
*585 FILLER_16_109
*586 FILLER_16_121
*587 FILLER_16_133
*588 FILLER_16_139
*589 FILLER_16_141
*590 FILLER_16_158
*591 FILLER_16_166
*592 FILLER_16_173
*593 FILLER_16_181
*594 FILLER_16_191
*595 FILLER_16_195
*596 FILLER_16_197
*597 FILLER_16_209
*598 FILLER_16_221
*599 FILLER_16_236
*600 FILLER_16_24
*601 FILLER_16_248
*602 FILLER_16_253
*603 FILLER_16_265
*604 FILLER_16_277
*605 FILLER_16_289
*606 FILLER_16_29
*607 FILLER_16_297
*608 FILLER_16_3
*609 FILLER_16_35
*610 FILLER_16_52
*611 FILLER_16_7
*612 FILLER_16_74
*613 FILLER_16_82
*614 FILLER_16_85
*615 FILLER_17_105
*616 FILLER_17_111
*617 FILLER_17_113
*618 FILLER_17_123
*619 FILLER_17_135
*620 FILLER_17_14
*621 FILLER_17_147
*622 FILLER_17_159
*623 FILLER_17_167
*624 FILLER_17_178
*625 FILLER_17_190
*626 FILLER_17_202
*627 FILLER_17_214
*628 FILLER_17_222
*629 FILLER_17_225
*630 FILLER_17_237
*631 FILLER_17_249
*632 FILLER_17_261
*633 FILLER_17_273
*634 FILLER_17_279
*635 FILLER_17_281
*636 FILLER_17_293
*637 FILLER_17_36
*638 FILLER_17_48
*639 FILLER_17_57
*640 FILLER_17_6
*641 FILLER_17_69
*642 FILLER_17_93
*643 FILLER_18_105
*644 FILLER_18_117
*645 FILLER_18_129
*646 FILLER_18_137
*647 FILLER_18_141
*648 FILLER_18_153
*649 FILLER_18_165
*650 FILLER_18_177
*651 FILLER_18_189
*652 FILLER_18_195
*653 FILLER_18_197
*654 FILLER_18_218
*655 FILLER_18_22
*656 FILLER_18_230
*657 FILLER_18_242
*658 FILLER_18_250
*659 FILLER_18_253
*660 FILLER_18_265
*661 FILLER_18_277
*662 FILLER_18_289
*663 FILLER_18_29
*664 FILLER_18_297
*665 FILLER_18_3
*666 FILLER_18_41
*667 FILLER_18_58
*668 FILLER_18_80
*669 FILLER_18_85
*670 FILLER_19_105
*671 FILLER_19_111
*672 FILLER_19_129
*673 FILLER_19_138
*674 FILLER_19_146
*675 FILLER_19_151
*676 FILLER_19_163
*677 FILLER_19_167
*678 FILLER_19_169
*679 FILLER_19_180
*680 FILLER_19_192
*681 FILLER_19_204
*682 FILLER_19_216
*683 FILLER_19_22
*684 FILLER_19_225
*685 FILLER_19_229
*686 FILLER_19_241
*687 FILLER_19_253
*688 FILLER_19_265
*689 FILLER_19_277
*690 FILLER_19_281
*691 FILLER_19_293
*692 FILLER_19_3
*693 FILLER_19_34
*694 FILLER_19_52
*695 FILLER_19_74
*696 FILLER_19_86
*697 FILLER_1_111
*698 FILLER_1_113
*699 FILLER_1_125
*700 FILLER_1_131
*701 FILLER_1_149
*702 FILLER_1_162
*703 FILLER_1_178
*704 FILLER_1_190
*705 FILLER_1_202
*706 FILLER_1_214
*707 FILLER_1_222
*708 FILLER_1_225
*709 FILLER_1_232
*710 FILLER_1_239
*711 FILLER_1_251
*712 FILLER_1_263
*713 FILLER_1_27
*714 FILLER_1_275
*715 FILLER_1_279
*716 FILLER_1_281
*717 FILLER_1_293
*718 FILLER_1_3
*719 FILLER_1_39
*720 FILLER_1_57
*721 FILLER_1_77
*722 FILLER_1_99
*723 FILLER_20_105
*724 FILLER_20_113
*725 FILLER_20_124
*726 FILLER_20_130
*727 FILLER_20_136
*728 FILLER_20_141
*729 FILLER_20_156
*730 FILLER_20_168
*731 FILLER_20_180
*732 FILLER_20_19
*733 FILLER_20_192
*734 FILLER_20_197
*735 FILLER_20_209
*736 FILLER_20_221
*737 FILLER_20_233
*738 FILLER_20_245
*739 FILLER_20_251
*740 FILLER_20_253
*741 FILLER_20_265
*742 FILLER_20_27
*743 FILLER_20_277
*744 FILLER_20_289
*745 FILLER_20_29
*746 FILLER_20_297
*747 FILLER_20_41
*748 FILLER_20_53
*749 FILLER_20_61
*750 FILLER_20_79
*751 FILLER_20_83
*752 FILLER_20_85
*753 FILLER_21_104
*754 FILLER_21_113
*755 FILLER_21_125
*756 FILLER_21_137
*757 FILLER_21_149
*758 FILLER_21_161
*759 FILLER_21_167
*760 FILLER_21_178
*761 FILLER_21_18
*762 FILLER_21_190
*763 FILLER_21_202
*764 FILLER_21_214
*765 FILLER_21_222
*766 FILLER_21_225
*767 FILLER_21_229
*768 FILLER_21_241
*769 FILLER_21_253
*770 FILLER_21_26
*771 FILLER_21_265
*772 FILLER_21_277
*773 FILLER_21_281
*774 FILLER_21_293
*775 FILLER_21_31
*776 FILLER_21_40
*777 FILLER_21_47
*778 FILLER_21_55
*779 FILLER_21_57
*780 FILLER_21_6
*781 FILLER_21_69
*782 FILLER_21_74
*783 FILLER_21_86
*784 FILLER_22_100
*785 FILLER_22_111
*786 FILLER_22_120
*787 FILLER_22_128
*788 FILLER_22_134
*789 FILLER_22_150
*790 FILLER_22_162
*791 FILLER_22_174
*792 FILLER_22_18
*793 FILLER_22_180
*794 FILLER_22_191
*795 FILLER_22_195
*796 FILLER_22_200
*797 FILLER_22_212
*798 FILLER_22_224
*799 FILLER_22_236
*800 FILLER_22_242
*801 FILLER_22_247
*802 FILLER_22_251
*803 FILLER_22_253
*804 FILLER_22_26
*805 FILLER_22_265
*806 FILLER_22_277
*807 FILLER_22_289
*808 FILLER_22_29
*809 FILLER_22_297
*810 FILLER_22_47
*811 FILLER_22_55
*812 FILLER_22_6
*813 FILLER_22_65
*814 FILLER_22_77
*815 FILLER_22_83
*816 FILLER_22_85
*817 FILLER_23_102
*818 FILLER_23_110
*819 FILLER_23_113
*820 FILLER_23_137
*821 FILLER_23_141
*822 FILLER_23_150
*823 FILLER_23_157
*824 FILLER_23_165
*825 FILLER_23_169
*826 FILLER_23_181
*827 FILLER_23_193
*828 FILLER_23_200
*829 FILLER_23_212
*830 FILLER_23_22
*831 FILLER_23_225
*832 FILLER_23_237
*833 FILLER_23_249
*834 FILLER_23_261
*835 FILLER_23_273
*836 FILLER_23_279
*837 FILLER_23_281
*838 FILLER_23_293
*839 FILLER_23_3
*840 FILLER_23_35
*841 FILLER_23_52
*842 FILLER_23_66
*843 FILLER_23_74
*844 FILLER_23_86
*845 FILLER_23_9
*846 FILLER_23_95
*847 FILLER_24_103
*848 FILLER_24_114
*849 FILLER_24_123
*850 FILLER_24_13
*851 FILLER_24_135
*852 FILLER_24_139
*853 FILLER_24_141
*854 FILLER_24_149
*855 FILLER_24_159
*856 FILLER_24_171
*857 FILLER_24_183
*858 FILLER_24_195
*859 FILLER_24_197
*860 FILLER_24_20
*861 FILLER_24_209
*862 FILLER_24_221
*863 FILLER_24_233
*864 FILLER_24_245
*865 FILLER_24_251
*866 FILLER_24_253
*867 FILLER_24_265
*868 FILLER_24_277
*869 FILLER_24_289
*870 FILLER_24_297
*871 FILLER_24_3
*872 FILLER_24_34
*873 FILLER_24_40
*874 FILLER_24_51
*875 FILLER_24_58
*876 FILLER_24_73
*877 FILLER_24_80
*878 FILLER_24_85
*879 FILLER_24_93
*880 FILLER_25_105
*881 FILLER_25_111
*882 FILLER_25_12
*883 FILLER_25_120
*884 FILLER_25_132
*885 FILLER_25_144
*886 FILLER_25_156
*887 FILLER_25_169
*888 FILLER_25_17
*889 FILLER_25_181
*890 FILLER_25_185
*891 FILLER_25_197
*892 FILLER_25_209
*893 FILLER_25_221
*894 FILLER_25_225
*895 FILLER_25_237
*896 FILLER_25_24
*897 FILLER_25_249
*898 FILLER_25_261
*899 FILLER_25_273
*900 FILLER_25_279
*901 FILLER_25_281
*902 FILLER_25_293
*903 FILLER_25_37
*904 FILLER_25_41
*905 FILLER_25_49
*906 FILLER_25_55
*907 FILLER_25_6
*908 FILLER_25_63
*909 FILLER_25_76
*910 FILLER_25_84
*911 FILLER_25_93
*912 FILLER_26_109
*913 FILLER_26_12
*914 FILLER_26_121
*915 FILLER_26_133
*916 FILLER_26_139
*917 FILLER_26_141
*918 FILLER_26_147
*919 FILLER_26_159
*920 FILLER_26_171
*921 FILLER_26_19
*922 FILLER_26_192
*923 FILLER_26_197
*924 FILLER_26_209
*925 FILLER_26_221
*926 FILLER_26_233
*927 FILLER_26_245
*928 FILLER_26_251
*929 FILLER_26_253
*930 FILLER_26_265
*931 FILLER_26_27
*932 FILLER_26_277
*933 FILLER_26_289
*934 FILLER_26_297
*935 FILLER_26_3
*936 FILLER_26_38
*937 FILLER_26_49
*938 FILLER_26_64
*939 FILLER_26_80
*940 FILLER_26_85
*941 FILLER_26_97
*942 FILLER_27_100
*943 FILLER_27_113
*944 FILLER_27_125
*945 FILLER_27_133
*946 FILLER_27_14
*947 FILLER_27_143
*948 FILLER_27_156
*949 FILLER_27_169
*950 FILLER_27_181
*951 FILLER_27_193
*952 FILLER_27_20
*953 FILLER_27_205
*954 FILLER_27_217
*955 FILLER_27_223
*956 FILLER_27_225
*957 FILLER_27_237
*958 FILLER_27_24
*959 FILLER_27_249
*960 FILLER_27_261
*961 FILLER_27_273
*962 FILLER_27_279
*963 FILLER_27_281
*964 FILLER_27_293
*965 FILLER_27_3
*966 FILLER_27_31
*967 FILLER_27_39
*968 FILLER_27_51
*969 FILLER_27_55
*970 FILLER_27_60
*971 FILLER_27_73
*972 FILLER_27_80
*973 FILLER_27_84
*974 FILLER_27_88
*975 FILLER_27_94
*976 FILLER_28_104
*977 FILLER_28_11
*978 FILLER_28_110
*979 FILLER_28_116
*980 FILLER_28_124
*981 FILLER_28_135
*982 FILLER_28_139
*983 FILLER_28_141
*984 FILLER_28_149
*985 FILLER_28_161
*986 FILLER_28_173
*987 FILLER_28_185
*988 FILLER_28_193
*989 FILLER_28_200
*990 FILLER_28_212
*991 FILLER_28_224
*992 FILLER_28_236
*993 FILLER_28_24
*994 FILLER_28_248
*995 FILLER_28_253
*996 FILLER_28_265
*997 FILLER_28_277
*998 FILLER_28_289
*999 FILLER_28_29
*1000 FILLER_28_297
*1001 FILLER_28_3
*1002 FILLER_28_35
*1003 FILLER_28_52
*1004 FILLER_28_63
*1005 FILLER_28_75
*1006 FILLER_28_83
*1007 FILLER_28_92
*1008 FILLER_29_105
*1009 FILLER_29_11
*1010 FILLER_29_111
*1011 FILLER_29_113
*1012 FILLER_29_125
*1013 FILLER_29_137
*1014 FILLER_29_149
*1015 FILLER_29_161
*1016 FILLER_29_167
*1017 FILLER_29_169
*1018 FILLER_29_18
*1019 FILLER_29_181
*1020 FILLER_29_193
*1021 FILLER_29_205
*1022 FILLER_29_217
*1023 FILLER_29_223
*1024 FILLER_29_225
*1025 FILLER_29_237
*1026 FILLER_29_249
*1027 FILLER_29_26
*1028 FILLER_29_261
*1029 FILLER_29_273
*1030 FILLER_29_279
*1031 FILLER_29_281
*1032 FILLER_29_293
*1033 FILLER_29_3
*1034 FILLER_29_33
*1035 FILLER_29_46
*1036 FILLER_29_54
*1037 FILLER_29_61
*1038 FILLER_29_71
*1039 FILLER_29_84
*1040 FILLER_29_88
*1041 FILLER_29_94
*1042 FILLER_2_102
*1043 FILLER_2_122
*1044 FILLER_2_134
*1045 FILLER_2_141
*1046 FILLER_2_154
*1047 FILLER_2_161
*1048 FILLER_2_169
*1049 FILLER_2_173
*1050 FILLER_2_185
*1051 FILLER_2_193
*1052 FILLER_2_197
*1053 FILLER_2_209
*1054 FILLER_2_221
*1055 FILLER_2_233
*1056 FILLER_2_24
*1057 FILLER_2_245
*1058 FILLER_2_251
*1059 FILLER_2_253
*1060 FILLER_2_265
*1061 FILLER_2_277
*1062 FILLER_2_289
*1063 FILLER_2_29
*1064 FILLER_2_297
*1065 FILLER_2_3
*1066 FILLER_2_7
*1067 FILLER_2_80
*1068 FILLER_30_109
*1069 FILLER_30_12
*1070 FILLER_30_121
*1071 FILLER_30_133
*1072 FILLER_30_139
*1073 FILLER_30_149
*1074 FILLER_30_16
*1075 FILLER_30_161
*1076 FILLER_30_173
*1077 FILLER_30_185
*1078 FILLER_30_193
*1079 FILLER_30_197
*1080 FILLER_30_209
*1081 FILLER_30_221
*1082 FILLER_30_233
*1083 FILLER_30_24
*1084 FILLER_30_245
*1085 FILLER_30_251
*1086 FILLER_30_253
*1087 FILLER_30_265
*1088 FILLER_30_277
*1089 FILLER_30_283
*1090 FILLER_30_288
*1091 FILLER_30_29
*1092 FILLER_30_296
*1093 FILLER_30_3
*1094 FILLER_30_38
*1095 FILLER_30_47
*1096 FILLER_30_60
*1097 FILLER_30_69
*1098 FILLER_30_81
*1099 FILLER_30_85
*1100 FILLER_30_97
*1101 FILLER_31_101
*1102 FILLER_31_109
*1103 FILLER_31_119
*1104 FILLER_31_128
*1105 FILLER_31_137
*1106 FILLER_31_149
*1107 FILLER_31_155
*1108 FILLER_31_16
*1109 FILLER_31_167
*1110 FILLER_31_169
*1111 FILLER_31_176
*1112 FILLER_31_188
*1113 FILLER_31_200
*1114 FILLER_31_212
*1115 FILLER_31_225
*1116 FILLER_31_237
*1117 FILLER_31_24
*1118 FILLER_31_249
*1119 FILLER_31_261
*1120 FILLER_31_273
*1121 FILLER_31_279
*1122 FILLER_31_281
*1123 FILLER_31_293
*1124 FILLER_31_3
*1125 FILLER_31_34
*1126 FILLER_31_47
*1127 FILLER_31_55
*1128 FILLER_31_67
*1129 FILLER_31_71
*1130 FILLER_31_89
*1131 FILLER_32_111
*1132 FILLER_32_12
*1133 FILLER_32_121
*1134 FILLER_32_125
*1135 FILLER_32_133
*1136 FILLER_32_139
*1137 FILLER_32_141
*1138 FILLER_32_153
*1139 FILLER_32_16
*1140 FILLER_32_165
*1141 FILLER_32_177
*1142 FILLER_32_185
*1143 FILLER_32_190
*1144 FILLER_32_201
*1145 FILLER_32_213
*1146 FILLER_32_225
*1147 FILLER_32_237
*1148 FILLER_32_24
*1149 FILLER_32_249
*1150 FILLER_32_253
*1151 FILLER_32_265
*1152 FILLER_32_277
*1153 FILLER_32_29
*1154 FILLER_32_293
*1155 FILLER_32_3
*1156 FILLER_32_39
*1157 FILLER_32_47
*1158 FILLER_32_51
*1159 FILLER_32_55
*1160 FILLER_32_67
*1161 FILLER_32_8
*1162 FILLER_32_80
*1163 FILLER_32_85
*1164 FILLER_32_97
*1165 FILLER_33_100
*1166 FILLER_33_113
*1167 FILLER_33_125
*1168 FILLER_33_13
*1169 FILLER_33_133
*1170 FILLER_33_145
*1171 FILLER_33_156
*1172 FILLER_33_169
*1173 FILLER_33_181
*1174 FILLER_33_193
*1175 FILLER_33_205
*1176 FILLER_33_217
*1177 FILLER_33_223
*1178 FILLER_33_225
*1179 FILLER_33_237
*1180 FILLER_33_249
*1181 FILLER_33_261
*1182 FILLER_33_27
*1183 FILLER_33_273
*1184 FILLER_33_279
*1185 FILLER_33_281
*1186 FILLER_33_293
*1187 FILLER_33_3
*1188 FILLER_33_35
*1189 FILLER_33_44
*1190 FILLER_33_57
*1191 FILLER_33_64
*1192 FILLER_33_76
*1193 FILLER_33_88
*1194 FILLER_33_9
*1195 FILLER_34_100
*1196 FILLER_34_104
*1197 FILLER_34_116
*1198 FILLER_34_128
*1199 FILLER_34_132
*1200 FILLER_34_141
*1201 FILLER_34_153
*1202 FILLER_34_165
*1203 FILLER_34_170
*1204 FILLER_34_182
*1205 FILLER_34_194
*1206 FILLER_34_197
*1207 FILLER_34_20
*1208 FILLER_34_209
*1209 FILLER_34_221
*1210 FILLER_34_233
*1211 FILLER_34_245
*1212 FILLER_34_251
*1213 FILLER_34_253
*1214 FILLER_34_265
*1215 FILLER_34_277
*1216 FILLER_34_289
*1217 FILLER_34_29
*1218 FILLER_34_297
*1219 FILLER_34_3
*1220 FILLER_34_40
*1221 FILLER_34_53
*1222 FILLER_34_71
*1223 FILLER_34_83
*1224 FILLER_34_88
*1225 FILLER_35_110
*1226 FILLER_35_113
*1227 FILLER_35_125
*1228 FILLER_35_133
*1229 FILLER_35_156
*1230 FILLER_35_169
*1231 FILLER_35_181
*1232 FILLER_35_193
*1233 FILLER_35_205
*1234 FILLER_35_21
*1235 FILLER_35_217
*1236 FILLER_35_223
*1237 FILLER_35_225
*1238 FILLER_35_237
*1239 FILLER_35_249
*1240 FILLER_35_261
*1241 FILLER_35_269
*1242 FILLER_35_276
*1243 FILLER_35_281
*1244 FILLER_35_293
*1245 FILLER_35_3
*1246 FILLER_35_32
*1247 FILLER_35_45
*1248 FILLER_35_53
*1249 FILLER_35_57
*1250 FILLER_35_69
*1251 FILLER_35_81
*1252 FILLER_35_87
*1253 FILLER_35_9
*1254 FILLER_35_98
*1255 FILLER_36_106
*1256 FILLER_36_110
*1257 FILLER_36_115
*1258 FILLER_36_123
*1259 FILLER_36_129
*1260 FILLER_36_134
*1261 FILLER_36_141
*1262 FILLER_36_154
*1263 FILLER_36_166
*1264 FILLER_36_178
*1265 FILLER_36_190
*1266 FILLER_36_197
*1267 FILLER_36_209
*1268 FILLER_36_21
*1269 FILLER_36_221
*1270 FILLER_36_233
*1271 FILLER_36_245
*1272 FILLER_36_251
*1273 FILLER_36_253
*1274 FILLER_36_265
*1275 FILLER_36_27
*1276 FILLER_36_277
*1277 FILLER_36_289
*1278 FILLER_36_29
*1279 FILLER_36_297
*1280 FILLER_36_33
*1281 FILLER_36_37
*1282 FILLER_36_44
*1283 FILLER_36_63
*1284 FILLER_36_75
*1285 FILLER_36_83
*1286 FILLER_36_85
*1287 FILLER_36_9
*1288 FILLER_37_105
*1289 FILLER_37_11
*1290 FILLER_37_111
*1291 FILLER_37_113
*1292 FILLER_37_125
*1293 FILLER_37_134
*1294 FILLER_37_141
*1295 FILLER_37_149
*1296 FILLER_37_15
*1297 FILLER_37_161
*1298 FILLER_37_167
*1299 FILLER_37_169
*1300 FILLER_37_181
*1301 FILLER_37_189
*1302 FILLER_37_193
*1303 FILLER_37_204
*1304 FILLER_37_216
*1305 FILLER_37_225
*1306 FILLER_37_23
*1307 FILLER_37_237
*1308 FILLER_37_249
*1309 FILLER_37_261
*1310 FILLER_37_273
*1311 FILLER_37_279
*1312 FILLER_37_281
*1313 FILLER_37_293
*1314 FILLER_37_3
*1315 FILLER_37_40
*1316 FILLER_37_52
*1317 FILLER_37_62
*1318 FILLER_37_78
*1319 FILLER_37_82
*1320 FILLER_37_87
*1321 FILLER_37_99
*1322 FILLER_38_106
*1323 FILLER_38_113
*1324 FILLER_38_125
*1325 FILLER_38_137
*1326 FILLER_38_141
*1327 FILLER_38_149
*1328 FILLER_38_155
*1329 FILLER_38_167
*1330 FILLER_38_179
*1331 FILLER_38_191
*1332 FILLER_38_195
*1333 FILLER_38_197
*1334 FILLER_38_209
*1335 FILLER_38_221
*1336 FILLER_38_233
*1337 FILLER_38_24
*1338 FILLER_38_245
*1339 FILLER_38_251
*1340 FILLER_38_253
*1341 FILLER_38_265
*1342 FILLER_38_277
*1343 FILLER_38_289
*1344 FILLER_38_29
*1345 FILLER_38_297
*1346 FILLER_38_3
*1347 FILLER_38_41
*1348 FILLER_38_53
*1349 FILLER_38_65
*1350 FILLER_38_73
*1351 FILLER_38_80
*1352 FILLER_38_94
*1353 FILLER_39_100
*1354 FILLER_39_107
*1355 FILLER_39_111
*1356 FILLER_39_120
*1357 FILLER_39_129
*1358 FILLER_39_137
*1359 FILLER_39_147
*1360 FILLER_39_15
*1361 FILLER_39_159
*1362 FILLER_39_167
*1363 FILLER_39_169
*1364 FILLER_39_181
*1365 FILLER_39_193
*1366 FILLER_39_205
*1367 FILLER_39_217
*1368 FILLER_39_223
*1369 FILLER_39_225
*1370 FILLER_39_237
*1371 FILLER_39_249
*1372 FILLER_39_261
*1373 FILLER_39_27
*1374 FILLER_39_273
*1375 FILLER_39_279
*1376 FILLER_39_281
*1377 FILLER_39_293
*1378 FILLER_39_3
*1379 FILLER_39_39
*1380 FILLER_39_52
*1381 FILLER_39_57
*1382 FILLER_39_69
*1383 FILLER_39_81
*1384 FILLER_3_101
*1385 FILLER_3_109
*1386 FILLER_3_11
*1387 FILLER_3_129
*1388 FILLER_3_133
*1389 FILLER_3_143
*1390 FILLER_3_15
*1391 FILLER_3_155
*1392 FILLER_3_159
*1393 FILLER_3_167
*1394 FILLER_3_172
*1395 FILLER_3_180
*1396 FILLER_3_186
*1397 FILLER_3_193
*1398 FILLER_3_205
*1399 FILLER_3_217
*1400 FILLER_3_223
*1401 FILLER_3_225
*1402 FILLER_3_230
*1403 FILLER_3_242
*1404 FILLER_3_254
*1405 FILLER_3_266
*1406 FILLER_3_278
*1407 FILLER_3_281
*1408 FILLER_3_293
*1409 FILLER_3_3
*1410 FILLER_3_36
*1411 FILLER_3_48
*1412 FILLER_3_73
*1413 FILLER_40_109
*1414 FILLER_40_113
*1415 FILLER_40_119
*1416 FILLER_40_12
*1417 FILLER_40_125
*1418 FILLER_40_129
*1419 FILLER_40_137
*1420 FILLER_40_141
*1421 FILLER_40_153
*1422 FILLER_40_165
*1423 FILLER_40_177
*1424 FILLER_40_189
*1425 FILLER_40_195
*1426 FILLER_40_197
*1427 FILLER_40_209
*1428 FILLER_40_221
*1429 FILLER_40_233
*1430 FILLER_40_24
*1431 FILLER_40_245
*1432 FILLER_40_251
*1433 FILLER_40_253
*1434 FILLER_40_265
*1435 FILLER_40_277
*1436 FILLER_40_289
*1437 FILLER_40_29
*1438 FILLER_40_297
*1439 FILLER_40_3
*1440 FILLER_40_41
*1441 FILLER_40_53
*1442 FILLER_40_61
*1443 FILLER_40_72
*1444 FILLER_40_85
*1445 FILLER_40_97
*1446 FILLER_41_11
*1447 FILLER_41_111
*1448 FILLER_41_113
*1449 FILLER_41_119
*1450 FILLER_41_128
*1451 FILLER_41_140
*1452 FILLER_41_147
*1453 FILLER_41_159
*1454 FILLER_41_167
*1455 FILLER_41_169
*1456 FILLER_41_17
*1457 FILLER_41_181
*1458 FILLER_41_193
*1459 FILLER_41_205
*1460 FILLER_41_209
*1461 FILLER_41_215
*1462 FILLER_41_223
*1463 FILLER_41_225
*1464 FILLER_41_237
*1465 FILLER_41_249
*1466 FILLER_41_261
*1467 FILLER_41_273
*1468 FILLER_41_279
*1469 FILLER_41_281
*1470 FILLER_41_29
*1471 FILLER_41_293
*1472 FILLER_41_3
*1473 FILLER_41_41
*1474 FILLER_41_53
*1475 FILLER_41_63
*1476 FILLER_41_75
*1477 FILLER_41_87
*1478 FILLER_41_99
*1479 FILLER_42_108
*1480 FILLER_42_120
*1481 FILLER_42_132
*1482 FILLER_42_141
*1483 FILLER_42_15
*1484 FILLER_42_153
*1485 FILLER_42_165
*1486 FILLER_42_177
*1487 FILLER_42_189
*1488 FILLER_42_195
*1489 FILLER_42_197
*1490 FILLER_42_209
*1491 FILLER_42_221
*1492 FILLER_42_233
*1493 FILLER_42_245
*1494 FILLER_42_251
*1495 FILLER_42_253
*1496 FILLER_42_265
*1497 FILLER_42_27
*1498 FILLER_42_277
*1499 FILLER_42_289
*1500 FILLER_42_29
*1501 FILLER_42_297
*1502 FILLER_42_3
*1503 FILLER_42_41
*1504 FILLER_42_49
*1505 FILLER_42_63
*1506 FILLER_42_80
*1507 FILLER_42_85
*1508 FILLER_42_96
*1509 FILLER_43_107
*1510 FILLER_43_111
*1511 FILLER_43_113
*1512 FILLER_43_125
*1513 FILLER_43_137
*1514 FILLER_43_149
*1515 FILLER_43_15
*1516 FILLER_43_161
*1517 FILLER_43_167
*1518 FILLER_43_169
*1519 FILLER_43_181
*1520 FILLER_43_193
*1521 FILLER_43_205
*1522 FILLER_43_217
*1523 FILLER_43_223
*1524 FILLER_43_225
*1525 FILLER_43_237
*1526 FILLER_43_249
*1527 FILLER_43_261
*1528 FILLER_43_27
*1529 FILLER_43_273
*1530 FILLER_43_279
*1531 FILLER_43_281
*1532 FILLER_43_293
*1533 FILLER_43_3
*1534 FILLER_43_39
*1535 FILLER_43_51
*1536 FILLER_43_55
*1537 FILLER_43_57
*1538 FILLER_43_69
*1539 FILLER_43_81
*1540 FILLER_43_93
*1541 FILLER_43_97
*1542 FILLER_44_116
*1543 FILLER_44_128
*1544 FILLER_44_141
*1545 FILLER_44_15
*1546 FILLER_44_153
*1547 FILLER_44_165
*1548 FILLER_44_177
*1549 FILLER_44_189
*1550 FILLER_44_195
*1551 FILLER_44_197
*1552 FILLER_44_209
*1553 FILLER_44_221
*1554 FILLER_44_233
*1555 FILLER_44_245
*1556 FILLER_44_251
*1557 FILLER_44_253
*1558 FILLER_44_265
*1559 FILLER_44_27
*1560 FILLER_44_277
*1561 FILLER_44_289
*1562 FILLER_44_29
*1563 FILLER_44_297
*1564 FILLER_44_3
*1565 FILLER_44_41
*1566 FILLER_44_53
*1567 FILLER_44_65
*1568 FILLER_44_77
*1569 FILLER_44_83
*1570 FILLER_44_85
*1571 FILLER_44_91
*1572 FILLER_44_98
*1573 FILLER_45_103
*1574 FILLER_45_111
*1575 FILLER_45_113
*1576 FILLER_45_120
*1577 FILLER_45_132
*1578 FILLER_45_144
*1579 FILLER_45_15
*1580 FILLER_45_156
*1581 FILLER_45_169
*1582 FILLER_45_181
*1583 FILLER_45_193
*1584 FILLER_45_205
*1585 FILLER_45_217
*1586 FILLER_45_223
*1587 FILLER_45_225
*1588 FILLER_45_237
*1589 FILLER_45_249
*1590 FILLER_45_261
*1591 FILLER_45_27
*1592 FILLER_45_273
*1593 FILLER_45_279
*1594 FILLER_45_281
*1595 FILLER_45_293
*1596 FILLER_45_3
*1597 FILLER_45_39
*1598 FILLER_45_51
*1599 FILLER_45_55
*1600 FILLER_45_57
*1601 FILLER_45_69
*1602 FILLER_45_81
*1603 FILLER_45_91
*1604 FILLER_46_107
*1605 FILLER_46_119
*1606 FILLER_46_131
*1607 FILLER_46_139
*1608 FILLER_46_141
*1609 FILLER_46_15
*1610 FILLER_46_153
*1611 FILLER_46_165
*1612 FILLER_46_177
*1613 FILLER_46_189
*1614 FILLER_46_195
*1615 FILLER_46_197
*1616 FILLER_46_209
*1617 FILLER_46_221
*1618 FILLER_46_233
*1619 FILLER_46_245
*1620 FILLER_46_251
*1621 FILLER_46_253
*1622 FILLER_46_265
*1623 FILLER_46_27
*1624 FILLER_46_277
*1625 FILLER_46_289
*1626 FILLER_46_29
*1627 FILLER_46_297
*1628 FILLER_46_3
*1629 FILLER_46_41
*1630 FILLER_46_53
*1631 FILLER_46_65
*1632 FILLER_46_77
*1633 FILLER_46_83
*1634 FILLER_46_85
*1635 FILLER_46_95
*1636 FILLER_47_105
*1637 FILLER_47_111
*1638 FILLER_47_113
*1639 FILLER_47_125
*1640 FILLER_47_137
*1641 FILLER_47_149
*1642 FILLER_47_15