*SPEF "ieee 1481-1999"
*DESIGN "flygoat_tt02_play_tune"
*DATE "11:11:11 Fri 11 11, 1111"
*VENDOR "OpenRCX"
*PROGRAM "Parallel Extraction"
*VERSION "1.0"
*DESIGN_FLOW "NAME_SCOPE LOCAL" "PIN_CAP NONE"
*DIVIDER /
*DELIMITER :
*BUS_DELIMITER []
*T_UNIT 1 NS
*C_UNIT 1 PF
*R_UNIT 1 OHM
*L_UNIT 1 HENRY

*NAME_MAP
*1 io_in[0]
*2 io_in[1]
*3 io_in[2]
*4 io_in[3]
*5 io_in[4]
*6 io_in[5]
*7 io_in[6]
*8 io_in[7]
*9 net2
*10 net16
*11 io_out[2]
*12 io_out[3]
*13 io_out[4]
*14 io_out[5]
*15 net3
*16 net4
*19 _000_
*20 _001_
*21 _002_
*22 _003_
*23 _004_
*24 _005_
*25 _006_
*26 _007_
*27 _008_
*28 _009_
*29 _010_
*30 _011_
*31 _012_
*32 _013_
*33 _014_
*34 _015_
*35 _027_
*36 _028_
*37 _029_
*38 _030_
*39 _031_
*40 _032_
*41 _033_
*42 _034_
*43 _035_
*44 _036_
*45 _037_
*46 _038_
*47 _039_
*48 _040_
*49 _041_
*50 _042_
*51 _043_
*52 _044_
*53 _045_
*54 _046_
*55 _047_
*56 _048_
*57 _049_
*58 _050_
*59 _051_
*60 _052_
*61 _053_
*62 _054_
*63 _055_
*64 _056_
*65 _057_
*66 _058_
*67 _059_
*68 _060_
*69 _061_
*70 _062_
*71 _063_
*72 _064_
*73 _065_
*74 _066_
*75 _067_
*76 _068_
*77 _069_
*78 _070_
*79 _071_
*80 _072_
*81 _073_
*82 _074_
*83 _075_
*84 _076_
*85 _077_
*86 _078_
*87 _079_
*88 _080_
*89 _081_
*90 _082_
*91 _083_
*92 _084_
*93 _085_
*94 _086_
*95 _087_
*96 clknet_0_io_in[0]
*97 clknet_1_0__leaf_io_in[0]
*98 clknet_1_1__leaf_io_in[0]
*99 cnt\[0\]
*100 cnt\[10\]
*101 cnt\[11\]
*102 cnt\[12\]
*103 cnt\[13\]
*104 cnt\[14\]
*105 cnt\[15\]
*106 cnt\[16\]
*107 cnt\[17\]
*108 cnt\[18\]
*109 cnt\[19\]
*110 cnt\[1\]
*111 cnt\[20\]
*112 cnt\[21\]
*113 cnt\[22\]
*114 cnt\[23\]
*115 cnt\[24\]
*116 cnt\[2\]
*117 cnt\[3\]
*118 cnt\[4\]
*119 cnt\[5\]
*120 cnt\[6\]
*121 cnt\[7\]
*122 cnt\[8\]
*123 cnt\[9\]
*124 led_cnt\[0\]
*125 led_cnt\[1\]
*126 net1
*127 net10
*128 net11
*129 net12
*130 net13
*131 net14
*132 net15
*133 net5
*134 net6
*135 net7
*136 net8
*137 net9
*138 FILLER_0_109
*139 FILLER_0_113
*140 FILLER_0_125
*141 FILLER_0_137
*142 FILLER_0_141
*143 FILLER_0_153
*144 FILLER_0_165
*145 FILLER_0_169
*146 FILLER_0_181
*147 FILLER_0_193
*148 FILLER_0_197
*149 FILLER_0_209
*150 FILLER_0_221
*151 FILLER_0_225
*152 FILLER_0_237
*153 FILLER_0_24
*154 FILLER_0_249
*155 FILLER_0_253
*156 FILLER_0_265
*157 FILLER_0_277
*158 FILLER_0_281
*159 FILLER_0_29
*160 FILLER_0_293
*161 FILLER_0_3
*162 FILLER_0_41
*163 FILLER_0_53
*164 FILLER_0_57
*165 FILLER_0_69
*166 FILLER_0_7
*167 FILLER_0_81
*168 FILLER_0_85
*169 FILLER_0_97
*170 FILLER_10_109
*171 FILLER_10_121
*172 FILLER_10_133
*173 FILLER_10_139
*174 FILLER_10_141
*175 FILLER_10_153
*176 FILLER_10_165
*177 FILLER_10_177
*178 FILLER_10_189
*179 FILLER_10_195
*180 FILLER_10_197
*181 FILLER_10_20
*182 FILLER_10_209
*183 FILLER_10_221
*184 FILLER_10_233
*185 FILLER_10_245
*186 FILLER_10_251
*187 FILLER_10_253
*188 FILLER_10_265
*189 FILLER_10_277
*190 FILLER_10_289
*191 FILLER_10_297
*192 FILLER_10_3
*193 FILLER_10_32
*194 FILLER_10_52
*195 FILLER_10_58
*196 FILLER_10_75
*197 FILLER_10_83
*198 FILLER_10_85
*199 FILLER_10_97
*200 FILLER_11_110
*201 FILLER_11_113
*202 FILLER_11_12
*203 FILLER_11_125
*204 FILLER_11_137
*205 FILLER_11_149
*206 FILLER_11_161
*207 FILLER_11_167
*208 FILLER_11_169
*209 FILLER_11_181
*210 FILLER_11_193
*211 FILLER_11_205
*212 FILLER_11_217
*213 FILLER_11_223
*214 FILLER_11_225
*215 FILLER_11_237
*216 FILLER_11_249
*217 FILLER_11_261
*218 FILLER_11_273
*219 FILLER_11_279
*220 FILLER_11_281
*221 FILLER_11_293
*222 FILLER_11_3
*223 FILLER_11_36
*224 FILLER_11_45
*225 FILLER_11_52
*226 FILLER_11_62
*227 FILLER_11_74
*228 FILLER_11_86
*229 FILLER_11_98
*230 FILLER_12_109
*231 FILLER_12_121
*232 FILLER_12_133
*233 FILLER_12_139
*234 FILLER_12_141
*235 FILLER_12_153
*236 FILLER_12_165
*237 FILLER_12_177
*238 FILLER_12_189
*239 FILLER_12_195
*240 FILLER_12_197
*241 FILLER_12_209
*242 FILLER_12_221
*243 FILLER_12_233
*244 FILLER_12_24
*245 FILLER_12_245
*246 FILLER_12_251
*247 FILLER_12_253
*248 FILLER_12_265
*249 FILLER_12_277
*250 FILLER_12_289
*251 FILLER_12_29
*252 FILLER_12_297
*253 FILLER_12_3
*254 FILLER_12_37
*255 FILLER_12_61
*256 FILLER_12_7
*257 FILLER_12_72
*258 FILLER_12_79
*259 FILLER_12_83
*260 FILLER_12_85
*261 FILLER_12_97
*262 FILLER_13_10
*263 FILLER_13_101
*264 FILLER_13_109
*265 FILLER_13_113
*266 FILLER_13_125
*267 FILLER_13_137
*268 FILLER_13_149
*269 FILLER_13_161
*270 FILLER_13_167
*271 FILLER_13_169
*272 FILLER_13_17
*273 FILLER_13_181
*274 FILLER_13_193
*275 FILLER_13_205
*276 FILLER_13_217
*277 FILLER_13_223
*278 FILLER_13_225
*279 FILLER_13_237
*280 FILLER_13_249
*281 FILLER_13_261
*282 FILLER_13_273
*283 FILLER_13_279
*284 FILLER_13_28
*285 FILLER_13_281
*286 FILLER_13_293
*287 FILLER_13_3
*288 FILLER_13_41
*289 FILLER_13_52
*290 FILLER_13_57
*291 FILLER_13_77
*292 FILLER_13_89
*293 FILLER_14_109
*294 FILLER_14_11
*295 FILLER_14_121
*296 FILLER_14_133
*297 FILLER_14_139
*298 FILLER_14_141
*299 FILLER_14_153
*300 FILLER_14_165
*301 FILLER_14_177
*302 FILLER_14_18
*303 FILLER_14_189
*304 FILLER_14_195
*305 FILLER_14_197
*306 FILLER_14_209
*307 FILLER_14_221
*308 FILLER_14_233
*309 FILLER_14_245
*310 FILLER_14_251
*311 FILLER_14_253
*312 FILLER_14_26
*313 FILLER_14_265
*314 FILLER_14_277
*315 FILLER_14_289
*316 FILLER_14_297
*317 FILLER_14_3
*318 FILLER_14_36
*319 FILLER_14_55
*320 FILLER_14_69
*321 FILLER_14_7
*322 FILLER_14_79
*323 FILLER_14_83
*324 FILLER_14_85
*325 FILLER_14_97
*326 FILLER_15_10
*327 FILLER_15_101
*328 FILLER_15_109
*329 FILLER_15_113
*330 FILLER_15_125
*331 FILLER_15_137
*332 FILLER_15_149
*333 FILLER_15_161
*334 FILLER_15_167
*335 FILLER_15_169
*336 FILLER_15_18
*337 FILLER_15_181
*338 FILLER_15_193
*339 FILLER_15_205
*340 FILLER_15_217
*341 FILLER_15_223
*342 FILLER_15_225
*343 FILLER_15_237
*344 FILLER_15_249
*345 FILLER_15_261
*346 FILLER_15_273
*347 FILLER_15_279
*348 FILLER_15_281
*349 FILLER_15_293
*350 FILLER_15_3
*351 FILLER_15_41
*352 FILLER_15_52
*353 FILLER_15_57
*354 FILLER_15_77
*355 FILLER_15_89
*356 FILLER_16_109
*357 FILLER_16_121
*358 FILLER_16_133
*359 FILLER_16_139
*360 FILLER_16_141
*361 FILLER_16_153
*362 FILLER_16_165
*363 FILLER_16_177
*364 FILLER_16_189
*365 FILLER_16_195
*366 FILLER_16_197
*367 FILLER_16_20
*368 FILLER_16_209
*369 FILLER_16_221
*370 FILLER_16_233
*371 FILLER_16_245
*372 FILLER_16_251
*373 FILLER_16_253
*374 FILLER_16_265
*375 FILLER_16_277
*376 FILLER_16_289
*377 FILLER_16_297
*378 FILLER_16_3
*379 FILLER_16_34
*380 FILLER_16_41
*381 FILLER_16_45
*382 FILLER_16_51
*383 FILLER_16_60
*384 FILLER_16_67
*385 FILLER_16_79
*386 FILLER_16_83
*387 FILLER_16_85
*388 FILLER_16_97
*389 FILLER_17_109
*390 FILLER_17_113
*391 FILLER_17_125
*392 FILLER_17_137
*393 FILLER_17_149
*394 FILLER_17_161
*395 FILLER_17_167
*396 FILLER_17_169
*397 FILLER_17_181
*398 FILLER_17_193
*399 FILLER_17_20
*400 FILLER_17_205
*401 FILLER_17_217
*402 FILLER_17_223
*403 FILLER_17_225
*404 FILLER_17_237
*405 FILLER_17_249
*406 FILLER_17_261
*407 FILLER_17_273
*408 FILLER_17_279
*409 FILLER_17_281
*410 FILLER_17_293
*411 FILLER_17_3
*412 FILLER_17_32
*413 FILLER_17_38
*414 FILLER_17_52
*415 FILLER_17_64
*416 FILLER_17_73
*417 FILLER_17_85
*418 FILLER_17_97
*419 FILLER_18_100
*420 FILLER_18_11
*421 FILLER_18_112
*422 FILLER_18_124
*423 FILLER_18_136
*424 FILLER_18_141
*425 FILLER_18_153
*426 FILLER_18_165
*427 FILLER_18_177
*428 FILLER_18_189
*429 FILLER_18_19
*430 FILLER_18_195
*431 FILLER_18_197
*432 FILLER_18_209
*433 FILLER_18_221
*434 FILLER_18_233
*435 FILLER_18_24
*436 FILLER_18_245
*437 FILLER_18_251
*438 FILLER_18_253
*439 FILLER_18_265
*440 FILLER_18_277
*441 FILLER_18_289
*442 FILLER_18_297
*443 FILLER_18_3
*444 FILLER_18_36
*445 FILLER_18_52
*446 FILLER_18_59
*447 FILLER_18_79
*448 FILLER_18_83
*449 FILLER_18_88
*450 FILLER_19_109
*451 FILLER_19_113
*452 FILLER_19_125
*453 FILLER_19_137
*454 FILLER_19_149
*455 FILLER_19_161
*456 FILLER_19_167
*457 FILLER_19_169
*458 FILLER_19_181
*459 FILLER_19_193
*460 FILLER_19_205
*461 FILLER_19_217
*462 FILLER_19_22
*463 FILLER_19_223
*464 FILLER_19_225
*465 FILLER_19_237
*466 FILLER_19_249
*467 FILLER_19_261
*468 FILLER_19_273
*469 FILLER_19_279
*470 FILLER_19_281
*471 FILLER_19_293
*472 FILLER_19_3
*473 FILLER_19_32
*474 FILLER_19_40
*475 FILLER_19_49
*476 FILLER_19_55
*477 FILLER_19_64
*478 FILLER_19_73
*479 FILLER_19_85
*480 FILLER_19_97
*481 FILLER_1_105
*482 FILLER_1_111
*483 FILLER_1_113
*484 FILLER_1_125
*485 FILLER_1_137
*486 FILLER_1_149
*487 FILLER_1_15
*488 FILLER_1_161
*489 FILLER_1_167
*490 FILLER_1_169
*491 FILLER_1_181
*492 FILLER_1_193
*493 FILLER_1_205
*494 FILLER_1_217
*495 FILLER_1_223
*496 FILLER_1_225
*497 FILLER_1_237
*498 FILLER_1_249
*499 FILLER_1_261
*500 FILLER_1_273
*501 FILLER_1_279
*502 FILLER_1_281
*503 FILLER_1_293
*504 FILLER_1_3
*505 FILLER_1_35
*506 FILLER_1_48
*507 FILLER_1_57
*508 FILLER_1_69
*509 FILLER_1_81
*510 FILLER_1_93
*511 FILLER_20_109
*512 FILLER_20_121
*513 FILLER_20_133
*514 FILLER_20_139
*515 FILLER_20_141
*516 FILLER_20_15
*517 FILLER_20_153
*518 FILLER_20_165
*519 FILLER_20_177
*520 FILLER_20_189
*521 FILLER_20_195
*522 FILLER_20_197
*523 FILLER_20_209
*524 FILLER_20_221
*525 FILLER_20_233
*526 FILLER_20_245
*527 FILLER_20_251
*528 FILLER_20_253
*529 FILLER_20_265
*530 FILLER_20_27
*531 FILLER_20_277
*532 FILLER_20_289
*533 FILLER_20_297
*534 FILLER_20_3
*535 FILLER_20_37
*536 FILLER_20_46
*537 FILLER_20_53
*538 FILLER_20_61
*539 FILLER_20_67
*540 FILLER_20_76
*541 FILLER_20_85
*542 FILLER_20_97
*543 FILLER_21_100
*544 FILLER_21_113
*545 FILLER_21_125
*546 FILLER_21_137
*547 FILLER_21_149
*548 FILLER_21_161
*549 FILLER_21_167
*550 FILLER_21_169
*551 FILLER_21_181
*552 FILLER_21_193
*553 FILLER_21_205
*554 FILLER_21_217
*555 FILLER_21_223
*556 FILLER_21_225
*557 FILLER_21_237
*558 FILLER_21_249
*559 FILLER_21_261
*560 FILLER_21_273
*561 FILLER_21_279
*562 FILLER_21_281
*563 FILLER_21_293
*564 FILLER_21_3
*565 FILLER_21_31
*566 FILLER_21_40
*567 FILLER_21_52
*568 FILLER_21_64
*569 FILLER_21_76
*570 FILLER_21_88
*571 FILLER_22_109
*572 FILLER_22_121
*573 FILLER_22_133
*574 FILLER_22_139
*575 FILLER_22_141
*576 FILLER_22_153
*577 FILLER_22_165
*578 FILLER_22_177
*579 FILLER_22_189
*580 FILLER_22_19
*581 FILLER_22_195
*582 FILLER_22_197
*583 FILLER_22_209
*584 FILLER_22_221
*585 FILLER_22_233
*586 FILLER_22_245
*587 FILLER_22_251
*588 FILLER_22_253
*589 FILLER_22_265
*590 FILLER_22_27
*591 FILLER_22_277
*592 FILLER_22_289
*593 FILLER_22_29
*594 FILLER_22_297
*595 FILLER_22_44
*596 FILLER_22_52
*597 FILLER_22_57
*598 FILLER_22_77
*599 FILLER_22_83
*600 FILLER_22_85
*601 FILLER_22_97
*602 FILLER_23_109
*603 FILLER_23_113
*604 FILLER_23_125
*605 FILLER_23_137
*606 FILLER_23_149
*607 FILLER_23_161
*608 FILLER_23_167
*609 FILLER_23_169
*610 FILLER_23_181
*611 FILLER_23_193
*612 FILLER_23_205
*613 FILLER_23_217
*614 FILLER_23_223
*615 FILLER_23_225
*616 FILLER_23_237
*617 FILLER_23_24
*618 FILLER_23_249
*619 FILLER_23_261
*620 FILLER_23_273
*621 FILLER_23_279
*622 FILLER_23_281
*623 FILLER_23_293
*624 FILLER_23_3
*625 FILLER_23_44
*626 FILLER_23_7
*627 FILLER_23_73
*628 FILLER_23_85
*629 FILLER_23_97
*630 FILLER_24_109
*631 FILLER_24_11
*632 FILLER_24_121
*633 FILLER_24_133
*634 FILLER_24_139
*635 FILLER_24_141
*636 FILLER_24_153
*637 FILLER_24_165
*638 FILLER_24_177
*639 FILLER_24_189
*640 FILLER_24_195
*641 FILLER_24_197
*642 FILLER_24_209
*643 FILLER_24_221
*644 FILLER_24_23
*645 FILLER_24_233
*646 FILLER_24_245
*647 FILLER_24_251
*648 FILLER_24_253
*649 FILLER_24_265
*650 FILLER_24_27
*651 FILLER_24_277
*652 FILLER_24_289
*653 FILLER_24_29
*654 FILLER_24_297
*655 FILLER_24_3
*656 FILLER_24_38
*657 FILLER_24_50
*658 FILLER_24_62
*659 FILLER_24_74
*660 FILLER_24_82
*661 FILLER_24_85
*662 FILLER_24_97
*663 FILLER_25_105
*664 FILLER_25_11
*665 FILLER_25_111
*666 FILLER_25_113
*667 FILLER_25_125
*668 FILLER_25_137
*669 FILLER_25_149
*670 FILLER_25_161
*671 FILLER_25_167
*672 FILLER_25_169
*673 FILLER_25_181
*674 FILLER_25_19
*675 FILLER_25_193
*676 FILLER_25_205
*677 FILLER_25_217
*678 FILLER_25_223
*679 FILLER_25_225
*680 FILLER_25_237
*681 FILLER_25_249
*682 FILLER_25_261
*683 FILLER_25_273
*684 FILLER_25_279
*685 FILLER_25_281
*686 FILLER_25_293
*687 FILLER_25_3
*688 FILLER_25_31
*689 FILLER_25_43
*690 FILLER_25_55
*691 FILLER_25_57
*692 FILLER_25_69
*693 FILLER_25_81
*694 FILLER_25_93
*695 FILLER_26_109
*696 FILLER_26_121
*697 FILLER_26_133
*698 FILLER_26_139
*699 FILLER_26_141
*700 FILLER_26_153
*701 FILLER_26_16
*702 FILLER_26_165
*703 FILLER_26_177
*704 FILLER_26_189
*705 FILLER_26_195
*706 FILLER_26_197
*707 FILLER_26_209
*708 FILLER_26_221
*709 FILLER_26_233
*710 FILLER_26_24
*711 FILLER_26_245
*712 FILLER_26_251
*713 FILLER_26_253
*714 FILLER_26_265
*715 FILLER_26_277
*716 FILLER_26_289
*717 FILLER_26_297
*718 FILLER_26_33
*719 FILLER_26_45
*720 FILLER_26_57
*721 FILLER_26_69
*722 FILLER_26_81
*723 FILLER_26_85
*724 FILLER_26_97
*725 FILLER_27_10
*726 FILLER_27_105
*727 FILLER_27_111
*728 FILLER_27_113
*729 FILLER_27_125
*730 FILLER_27_137
*731 FILLER_27_149
*732 FILLER_27_161
*733 FILLER_27_167
*734 FILLER_27_169
*735 FILLER_27_181
*736 FILLER_27_19
*737 FILLER_27_193
*738 FILLER_27_205
*739 FILLER_27_217
*740 FILLER_27_223
*741 FILLER_27_225
*742 FILLER_27_237
*743 FILLER_27_249
*744 FILLER_27_261
*745 FILLER_27_273
*746 FILLER_27_279
*747 FILLER_27_281
*748 FILLER_27_293
*749 FILLER_27_3
*750 FILLER_27_31
*751 FILLER_27_43
*752 FILLER_27_55
*753 FILLER_27_57
*754 FILLER_27_69
*755 FILLER_27_81
*756 FILLER_27_93
*757 FILLER_28_109
*758 FILLER_28_121
*759 FILLER_28_133
*760 FILLER_28_139
*761 FILLER_28_141
*762 FILLER_28_15
*763 FILLER_28_153
*764 FILLER_28_165
*765 FILLER_28_177
*766 FILLER_28_189
*767 FILLER_28_195
*768 FILLER_28_197
*769 FILLER_28_209
*770 FILLER_28_221
*771 FILLER_28_233
*772 FILLER_28_245
*773 FILLER_28_251
*774 FILLER_28_253
*775 FILLER_28_265
*776 FILLER_28_27
*777 FILLER_28_277
*778 FILLER_28_289
*779 FILLER_28_29
*780 FILLER_28_297
*781 FILLER_28_3
*782 FILLER_28_41
*783 FILLER_28_53
*784 FILLER_28_65
*785 FILLER_28_77
*786 FILLER_28_83
*787 FILLER_28_85
*788 FILLER_28_97
*789 FILLER_29_105
*790 FILLER_29_111
*791 FILLER_29_113
*792 FILLER_29_125
*793 FILLER_29_137
*794 FILLER_29_149
*795 FILLER_29_15
*796 FILLER_29_161
*797 FILLER_29_167
*798 FILLER_29_169
*799 FILLER_29_181
*800 FILLER_29_193
*801 FILLER_29_205
*802 FILLER_29_217
*803 FILLER_29_223
*804 FILLER_29_225
*805 FILLER_29_237
*806 FILLER_29_249
*807 FILLER_29_261
*808 FILLER_29_27
*809 FILLER_29_273
*810 FILLER_29_279
*811 FILLER_29_281
*812 FILLER_29_293
*813 FILLER_29_3
*814 FILLER_29_39
*815 FILLER_29_51
*816 FILLER_29_55
*817 FILLER_29_57
*818 FILLER_29_69
*819 FILLER_29_81
*820 FILLER_29_93
*821 FILLER_2_109
*822 FILLER_2_11
*823 FILLER_2_121
*824 FILLER_2_133
*825 FILLER_2_139
*826 FILLER_2_141
*827 FILLER_2_15
*828 FILLER_2_153
*829 FILLER_2_165
*830 FILLER_2_177
*831 FILLER_2_189
*832 FILLER_2_195
*833 FILLER_2_197
*834 FILLER_2_209
*835 FILLER_2_221
*836 FILLER_2_233
*837 FILLER_2_24
*838 FILLER_2_245
*839 FILLER_2_251
*840 FILLER_2_253
*841 FILLER_2_265
*842 FILLER_2_277
*843 FILLER_2_289
*844 FILLER_2_29
*845 FILLER_2_297
*846 FILLER_2_3
*847 FILLER_2_35
*848 FILLER_2_55
*849 FILLER_2_62
*850 FILLER_2_74
*851 FILLER_2_82
*852 FILLER_2_85
*853 FILLER_2_97
*854 FILLER_30_109
*855 FILLER_30_121
*856 FILLER_30_133
*857 FILLER_30_139
*858 FILLER_30_141
*859 FILLER_30_15
*860 FILLER_30_153
*861 FILLER_30_165
*862 FILLER_30_177
*863 FILLER_30_189
*864 FILLER_30_195
*865 FILLER_30_197
*866 FILLER_30_209
*867 FILLER_30_221
*868 FILLER_30_233
*869 FILLER_30_245
*870 FILLER_30_251
*871 FILLER_30_253
*872 FILLER_30_265
*873 FILLER_30_27
*874 FILLER_30_277
*875 FILLER_30_289
*876 FILLER_30_29
*877 FILLER_30_297
*878 FILLER_30_3
*879 FILLER_30_41
*880 FILLER_30_53
*881 FILLER_30_65
*882 FILLER_30_77
*883 FILLER_30_83
*884 FILLER_30_85
*885 FILLER_30_97
*886 FILLER_31_105
*887 FILLER_31_111
*888 FILLER_31_113
*889 FILLER_31_125
*890 FILLER_31_137
*891 FILLER_31_149
*892 FILLER_31_161
*893 FILLER_31_167
*894 FILLER_31_169
*895 FILLER_31_18
*896 FILLER_31_181
*897 FILLER_31_193
*898 FILLER_31_205
*899 FILLER_31_217
*900 FILLER_31_223
*901 FILLER_31_225
*902 FILLER_31_237
*903 FILLER_31_249
*904 FILLER_31_261
*905 FILLER_31_273
*906 FILLER_31_279
*907 FILLER_31_281
*908 FILLER_31_293
*909 FILLER_31_30
*910 FILLER_31_42
*911 FILLER_31_54
*912 FILLER_31_57
*913 FILLER_31_6
*914 FILLER_31_69
*915 FILLER_31_81
*916 FILLER_31_93
*917 FILLER_32_109
*918 FILLER_32_121
*919 FILLER_32_133
*920 FILLER_32_139
*921 FILLER_32_141
*922 FILLER_32_15
*923 FILLER_32_153
*924 FILLER_32_165
*925 FILLER_32_177
*926 FILLER_32_189
*927 FILLER_32_195
*928 FILLER_32_197
*929 FILLER_32_209
*930 FILLER_32_221
*931 FILLER_32_233
*932 FILLER_32_245
*933 FILLER_32_251
*934 FILLER_32_253
*935 FILLER_32_265
*936 FILLER_32_27
*937 FILLER_32_277
*938 FILLER_32_289
*939 FILLER_32_29
*940 FILLER_32_297
*941 FILLER_32_3
*942 FILLER_32_41
*943 FILLER_32_53
*944 FILLER_32_65
*945 FILLER_32_77
*946 FILLER_32_83
*947 FILLER_32_85
*948 FILLER_32_97
*949 FILLER_33_105
*950 FILLER_33_111
*951 FILLER_33_113
*952 FILLER_33_125
*953 FILLER_33_137
*954 FILLER_33_149
*955 FILLER_33_15
*956 FILLER_33_161
*957 FILLER_33_167
*958 FILLER_33_169
*959 FILLER_33_181
*960 FILLER_33_193
*961 FILLER_33_205
*962 FILLER_33_217
*963 FILLER_33_223
*964 FILLER_33_225
*965 FILLER_33_237
*966 FILLER_33_249
*967 FILLER_33_261
*968 FILLER_33_27
*969 FILLER_33_273
*970 FILLER_33_279
*971 FILLER_33_281
*972 FILLER_33_293
*973 FILLER_33_3
*974 FILLER_33_39
*975 FILLER_33_51
*976 FILLER_33_55
*977 FILLER_33_57
*978 FILLER_33_69
*979 FILLER_33_81
*980 FILLER_33_93
*981 FILLER_34_109
*982 FILLER_34_121
*983 FILLER_34_133
*984 FILLER_34_139
*985 FILLER_34_141
*986 FILLER_34_15
*987 FILLER_34_153
*988 FILLER_34_165
*989 FILLER_34_177
*990 FILLER_34_189
*991 FILLER_34_195
*992 FILLER_34_197
*993 FILLER_34_209
*994 FILLER_34_221
*995 FILLER_34_233
*996 FILLER_34_245
*997 FILLER_34_251
*998 FILLER_34_253
*999 FILLER_34_265
*1000 FILLER_34_27
*1001 FILLER_34_277
*1002 FILLER_34_289
*1003 FILLER_34_29
*1004 FILLER_34_297
*1005 FILLER_34_3
*1006 FILLER_34_41
*1007 FILLER_34_53
*1008 FILLER_34_65
*1009 FILLER_34_77
*1010 FILLER_34_83
*1011 FILLER_34_85
*1012 FILLER_34_97
*1013 FILLER_35_105
*1014 FILLER_35_111
*1015 FILLER_35_113
*1016 FILLER_35_125
*1017 FILLER_35_137
*1018 FILLER_35_149
*1019 FILLER_35_161
*1020 FILLER_35_167
*1021 FILLER_35_169
*1022 FILLER_35_18
*1023 FILLER_35_181
*1024 FILLER_35_193
*1025 FILLER_35_205
*1026 FILLER_35_217
*1027 FILLER_35_223
*1028 FILLER_35_225
*1029 FILLER_35_237
*1030 FILLER_35_249
*1031 FILLER_35_261
*1032 FILLER_35_273
*1033 FILLER_35_279
*1034 FILLER_35_281
*1035 FILLER_35_293
*1036 FILLER_35_30
*1037 FILLER_35_42
*1038 FILLER_35_54
*1039 FILLER_35_57
*1040 FILLER_35_6
*1041 FILLER_35_69
*1042 FILLER_35_81
*1043 FILLER_35_93
*1044 FILLER_36_109
*1045 FILLER_36_121
*1046 FILLER_36_133
*1047 FILLER_36_139
*1048 FILLER_36_141
*1049 FILLER_36_15
*1050 FILLER_36_153
*1051 FILLER_36_165
*1052 FILLER_36_177
*1053 FILLER_36_189
*1054 FILLER_36_195
*1055 FILLER_36_197
*1056 FILLER_36_209
*1057 FILLER_36_221
*1058 FILLER_36_233
*1059 FILLER_36_245
*1060 FILLER_36_251
*1061 FILLER_36_253
*1062 FILLER_36_265
*1063 FILLER_36_27
*1064 FILLER_36_277
*1065 FILLER_36_289
*1066 FILLER_36_29
*1067 FILLER_36_297
*1068 FILLER_36_3
*1069 FILLER_36_41
*1070 FILLER_36_53
*1071 FILLER_36_65
*1072 FILLER_36_77
*1073 FILLER_36_83
*1074 FILLER_36_85
*1075 FILLER_36_97
*1076 FILLER_37_105
*1077 FILLER_37_111
*1078 FILLER_37_113
*1079 FILLER_37_125
*1080 FILLER_37_137
*1081 FILLER_37_149
*1082 FILLER_37_15
*1083 FILLER_37_161
*1084 FILLER_37_167
*1085 FILLER_37_169
*1086 FILLER_37_181
*1087 FILLER_37_193
*1088 FILLER_37_205
*1089 FILLER_37_217
*1090 FILLER_37_223
*1091 FILLER_37_225
*1092 FILLER_37_237
*1093 FILLER_37_249
*1094 FILLER_37_261
*1095 FILLER_37_27
*1096 FILLER_37_273
*1097 FILLER_37_279
*1098 FILLER_37_281
*1099 FILLER_37_293
*1100 FILLER_37_3
*1101 FILLER_37_39
*1102 FILLER_37_51
*1103 FILLER_37_55
*1104 FILLER_37_57
*1105 FILLER_37_69
*1106 FILLER_37_81
*1107 FILLER_37_93
*1108 FILLER_38_109
*1109 FILLER_38_11
*1110 FILLER_38_121
*1111 FILLER_38_133
*1112 FILLER_38_139
*1113 FILLER_38_141
*1114 FILLER_38_153
*1115 FILLER_38_165
*1116 FILLER_38_177
*1117 FILLER_38_189
*1118 FILLER_38_195
*1119 FILLER_38_197
*1120 FILLER_38_209
*1121 FILLER_38_221
*1122 FILLER_38_23
*1123 FILLER_38_233
*1124 FILLER_38_245
*1125 FILLER_38_251
*1126 FILLER_38_253
*1127 FILLER_38_265
*1128 FILLER_38_27
*1129 FILLER_38_277
*1130 FILLER_38_289
*1131 FILLER_38_29
*1132 FILLER_38_297
*1133 FILLER_38_41
*1134 FILLER_38_53
*1135 FILLER_38_65
*1136 FILLER_38_77
*1137 FILLER_38_83
*1138 FILLER_38_85
*1139 FILLER_38_97
*1140 FILLER_39_105
*1141 FILLER_39_11
*1142 FILLER_39_111
*1143 FILLER_39_113
*1144 FILLER_39_125
*1145 FILLER_39_137
*1146 FILLER_39_149
*1147 FILLER_39_161
*1148 FILLER_39_167
*1149 FILLER_39_169
*1150 FILLER_39_181
*1151 FILLER_39_193
*1152 FILLER_39_205
*1153 FILLER_39_217
*1154 FILLER_39_223
*1155 FILLER_39_225
*1156 FILLER_39_23
*1157 FILLER_39_237
*1158 FILLER_39_249
*1159 FILLER_39_261
*1160 FILLER_39_273
*1161 FILLER_39_279
*1162 FILLER_39_281
*1163 FILLER_39_293
*1164 FILLER_39_3
*1165 FILLER_39_35
*1166 FILLER_39_47
*1167 FILLER_39_55
*1168 FILLER_39_57
*1169 FILLER_39_69
*1170 FILLER_39_7
*1171 FILLER_39_81
*1172 FILLER_39_93
*1173 FILLER_3_10
*1174 FILLER_3_110
*1175 FILLER_3_113
*1176 FILLER_3_125
*1177 FILLER_3_137
*1178 FILLER_3_149
*1179 FILLER_3_161
*1180 FILLER_3_167
*1181 FILLER_3_169
*1182 FILLER_3_181
*1183 FILLER_3_193
*1184 FILLER_3_205
*1185 FILLER_3_217
*1186 FILLER_3_22
*1187 FILLER_3_223
*1188 FILLER_3_225
*1189 FILLER_3_237
*1190 FILLER_3_249
*1191 FILLER_3_261
*1192 FILLER_3_273
*1193 FILLER_3_279
*1194 FILLER_3_28
*1195 FILLER_3_281
*1196 FILLER_3_293
*1197 FILLER_3_3
*1198 FILLER_3_35
*1199 FILLER_3_43
*1200 FILLER_3_50
*1201 FILLER_3_62
*1202 FILLER_3_74
*1203 FILLER_3_86
*1204 FILLER_3_98
*1205 FILLER_40_109
*1206 FILLER_40_11
*1207 FILLER_40_121
*1208 FILLER_40_133
*1209 FILLER_40_139
*1210 FILLER_40_141
*1211 FILLER_40_153
*1212 FILLER_40_165
*1213 FILLER_40_177
*1214 FILLER_40_189
*1215 FILLER_40_195
*1216 FILLER_40_197
*1217 FILLER_40_209
*1218 FILLER_40_221
*1219 FILLER_40_23
*1220 FILLER_40_233
*1221 FILLER_40_245
*1222 FILLER_40_251
*1223 FILLER_40_253
*1224 FILLER_40_265
*1225 FILLER_40_27
*1226 FILLER_40_277
*1227 FILLER_40_289
*1228 FILLER_40_29
*1229 FILLER_40_297
*1230 FILLER_40_41
*1231 FILLER_40_53
*1232 FILLER_40_65
*1233 FILLER_40_77
*1234 FILLER_40_83
*1235 FILLER_40_85
*1236 FILLER_40_97
*1237 FILLER_41_105
*1238 FILLER_41_111
*1239 FILLER_41_113
*1240 FILLER_41_125
*1241 FILLER_41_137
*1242 FILLER_41_149
*1243 FILLER_41_16
*1244 FILLER_41_161
*1245 FILLER_41_167
*1246 FILLER_41_169
*1247 FILLER_41_181
*1248 FILLER_41_193
*1249 FILLER_41_205
*1250 FILLER_41_217
*1251 FILLER_41_223
*1252 FILLER_41_225
*1253 FILLER_41_237
*1254 FILLER_41_249
*1255 FILLER_41_261
*1256 FILLER_41_273
*1257 FILLER_41_279
*1258 FILLER_41_28
*1259 FILLER_41_281
*1260 FILLER_41_293
*1261 FILLER_41_40
*1262 FILLER_41_52
*1263 FILLER_41_57
*1264 FILLER_41_69
*1265 FILLER_41_81
*1266 FILLER_41_93
*1267 FILLER_42_109
*1268 FILLER_42_121
*1269 FILLER_42_133
*1270 FILLER_42_139
*1271 FILLER_42_141
*1272 FILLER_42_15
*1273 FILLER_42_153
*1274 FILLER_42_165
*1275 FILLER_42_177
*1276 FILLER_42_189
*1277 FILLER_42_195
*1278 FILLER_42_197
*1279 FILLER_42_209
*1280 FILLER_42_221
*1281 FILLER_42_233
*1282 FILLER_42_245
*1283 FILLER_42_251
*1284 FILLER_42_253
*1285 FILLER_42_265
*1286 FILLER_42_27
*1287 FILLER_42_277
*1288 FILLER_42_289
*1289 FILLER_42_29
*1290 FILLER_42_297
*1291 FILLER_42_3
*1292 FILLER_42_41
*1293 FILLER_42_53
*1294 FILLER_42_65
*1295 FILLER_42_77
*1296 FILLER_42_83
*1297 FILLER_42_85
*1298 FILLER_42_97
*1299 FILLER_43_105
*1300 FILLER_43_111
*1301 FILLER_43_113
*1302 FILLER_43_125
*1303 FILLER_43_137
*1304 FILLER_43_149
*1305 FILLER_43_15
*1306 FILLER_43_161
*1307 FILLER_43_167
*1308 FILLER_43_169
*1309 FILLER_43_181
*1310 FILLER_43_193
*1311 FILLER_43_205
*1312 FILLER_43_217
*1313 FILLER_43_223
*1314 FILLER_43_225
*1315 FILLER_43_237
*1316 FILLER_43_249
*1317 FILLER_43_261
*1318 FILLER_43_27
*1319 FILLER_43_273
*1320 FILLER_43_279
*1321 FILLER_43_281
*1322 FILLER_43_293
*1323 FILLER_43_3
*1324 FILLER_43_39
*1325 FILLER_43_51
*1326 FILLER_43_55
*1327 FILLER_43_57
*1328 FILLER_43_69
*1329 FILLER_43_81
*1330 FILLER_43_93
*1331 FILLER_44_109
*1332 FILLER_44_121
*1333 FILLER_44_133
*1334 FILLER_44_139
*1335 FILLER_44_141
*1336 FILLER_44_15
*1337 FILLER_44_153
*1338 FILLER_44_165
*1339 FILLER_44_177
*1340 FILLER_44_189
*1341 FILLER_44_195
*1342 FILLER_44_197
*1343 FILLER_44_209
*1344 FILLER_44_221
*1345 FILLER_44_233
*1346 FILLER_44_245
*1347 FILLER_44_251
*1348 FILLER_44_253
*1349 FILLER_44_265
*1350 FILLER_44_27
*1351 FILLER_44_277
*1352 FILLER_44_289
*1353 FILLER_44_29
*1354 FILLER_44_297
*1355 FILLER_44_3
*1356 FILLER_44_41
*1357 FILLER_44_53
*1358 FILLER_44_65
*1359 FILLER_44_77
*1360 FILLER_44_83
*1361 FILLER_44_85
*1362 FILLER_44_97
*1363 FILLER_45_105
*1364 FILLER_45_111
*1365 FILLER_45_113
*1366 FILLER_45_125
*1367 FILLER_45_137
*1368 FILLER_45_149
*1369 FILLER_45_15
*1370 FILLER_45_161
*1371 FILLER_45_167
*1372 FILLER_45_169
*1373 FILLER_45_181
*1374 FILLER_45_193
*1375 FILLER_45_205
*1376 FILLER_45_217
*1377 FILLER_45_223
*1378 FILLER_45_225
*1379 FILLER_45_237
*1380 FILLER_45_249
*1381 FILLER_45_261
*1382 FILLER_45_27
*1383 FILLER_45_273
*1384 FILLER_45_279
*1385 FILLER_45_281
*1386 FILLER_45_293
*1387 FILLER_45_3
*1388 FILLER_45_39
*1389 FILLER_45_51
*1390 FILLER_45_55
*1391 FILLER_45_57
*1392 FILLER_45_69
*1393 FILLER_45_81
*1394 FILLER_45_93
*1395 FILLER_46_109
*1396 FILLER_46_121
*1397 FILLER_46_133
*1398 FILLER_46_139
*1399 FILLER_46_141
*1400 FILLER_46_15
*1401 FILLER_46_153
*1402 FILLER_46_165
*1403 FILLER_46_177
*1404 FILLER_46_189
*1405 FILLER_46_195
*1406 FILLER_46_197
*1407 FILLER_46_209
*1408 FILLER_46_221
*1409 FILLER_46_233
*1410 FILLER_46_245
*1411 FILLER_46_251
*1412 FILLER_46_253
*1413 FILLER_46_265
*1414 FILLER_46_27
*1415 FILLER_46_277
*1416 FILLER_46_289
*1417 FILLER_46_29
*1418 FILLER_46_297
*1419 FILLER_46_3
*1420 FILLER_46_41
*1421 FILLER_46_53
*1422 FILLER_46_65
*1423 FILLER_46_77
*1424 FILLER_46_83
*1425 FILLER_46_85
*1426 FILLER_46_97
*1427 FILLER_47_105
*1428 FILLER_47_111
*1429 FILLER_47_113
*1430 FILLER_47_125
*1431 FILLER_47_137
*1432 FILLER_47_149
*1433 FILLER_47_15
*1434 FILLER_47_161
*1435 FILLER_47_167
*1436 FILLER_47_169
*1437 FILLER_47_181
*1438 FILLER_47_193
*1439 FILLER_47_205
*1440 FILLER_47_217
*1441 FILLER_47_223
*1442 FILLER_47_225
*1443 FILLER_47_237
*1444 FILLER_47_249
*1445 FILLER_47_261
*1446 FILLER_47_27
*1447 FILLER_47_273
*1448 FILLER_47_279
*1449 FILLER_47_281
*1450 FILLER_47_293
*1451 FILLER_47_3
*1452 FILLER_47_39
*1453 FILLER_47_51
*1454 FILLER_47_55
*1455 FILLER_47_57
*1456 FILLER_47_69
*1457 FILLER_47_81
*1458 FILLER_47_93
*1459 FILLER_48_109
*1460 FILLER_48_121
*1461 FILLER_48_133
*1462 FILLER_48_139
*1463 FILLER_48_141
*1464 FILLER_48_15
*1465 FILLER_48_153
*1466 FILLER_48_165
*1467 FILLER_48_177
*1468 FILLER_48_189
*1469 FILLER_48_195
*1470 FILLER_48_197
*1471 FILLER_48_209
*1472 FILLER_48_221
*1473 FILLER_48_233
*1474 FILLER_48_245
*1475 FILLER_48_251
*1476 FILLER_48_253
*1477 FILLER_48_265
*1478 FILLER_48_27
*1479 FILLER_48_277
*1480 FILLER_48_289
*1481 FILLER_48_29
*1482 FILLER_48_297
*1483 FILLER_48_3
*1484 FILLER_48_41
*1485 FILLER_48_53
*1486 FILLER_48_65
*1487 FILLER_48_77
*1488 FILLER_48_83
*1489 FILLER_48_85
*1490 FILLER_48_97
*1491 FILLER_49_105
*1492 FILLER_49_111
*1493 FILLER_49_113
*1494 FILLER_49_125
*1495 FILLER_49_137
*1496 FILLER_49_149
*1497 FILLER_49_15
*1498 FILLER_49_161
*1499 FILLER_49_167
*1500 FILLER_49_169
*1501 FILLER_49_181
*1502 FILLER_49_193
*1503 FILLER_49_205
*1504 FILLER_49_217
*1505 FILLER_49_223
*1506 FILLER_49_225
*1507 FILLER_49_237
*1508 FILLER_49_249
*1509 FILLER_49_261
*1510 FILLER_49_27
*1511 FILLER_49_273
*1512 FILLER_49_279
*1513 FILLER_49_281
*1514 FILLER_49_293
*1515 FILLER_49_3
*1516 FILLER_49_39
*1517 FILLER_49_51
*1518 FILLER_49_55
*1519 FILLER_49_57
*1520 FILLER_49_69
*1521 FILLER_49_81
*1522 FILLER_49_93
*1523 FILLER_4_109
*1524 FILLER_4_121
*1525 FILLER_4_133
*1526 FILLER_4_139
*1527 FILLER_4_141
*1528 FILLER_4_153
*1529 FILLER_4_165
*1530 FILLER_4_177
*1531 FILLER_4_189
*1532 FILLER_4_195
*1533 FILLER_4_197
*1534 FILLER_4_209
*1535 FILLER_4_21
*1536 FILLER_4_221
*1537 FILLER_4_233
*1538 FILLER_4_245
*1539 FILLER_4_251
*1540 FILLER_4_253
*1541 FILLER_4_265
*1542 FILLER_4_27
*1543 FILLER_4_277
*1544 FILLER_4_289
*1545 FILLER_4_29
*1546 FILLER_4_297
*1547 FILLER_4_3
*1548 FILLER_4_38
*1549 FILLER_4_52
*1550 FILLER_4_58
*1551 FILLER_4_64
*1552 FILLER_4_71
*1553 FILLER_4_83
*1554 FILLER_4_85
*1555 FILLER_4_97
*1556 FILLER_50_109
*1557 FILLER_50_121
*1558 FILLER_50_133
*1559 FILLER_50_139
*1560 FILLER_50_141
*1561 FILLER_50_15
*1562 FILLER_50_153
*1563 FILLER_50_165
*1564 FILLER_50_177
*1565 FILLER_50_189
*1566 FILLER_50_195
*1567 FILLER_50_197
*1568 FILLER_50_209
*1569 FILLER_50_221
*1570 FILLER_50_233
*1571 FILLER_50_245
*1572 FILLER_50_251
*1573 FILLER_50_253
*1574 FILLER_50_265
*1575 FILLER_50_27
*1576 FILLER_50_277
*1577 FILLER_50_289
*1578 FILLER_50_29
*1579 FILLER_50_297
*1580 FILLER_50_3
*1581 FILLER_50_41
*1582 FILLER_50_53
*1583 FILLER_50_65
*1584 FILLER_50_77
*1585 FILLER_50_83
*1586 FILLER_50_85
*1587 FILLER_50_97
*1588 FILLER_51_105
*1589 FILLER_51_111
*1590 FILLER_51_113
*1591 FILLER_51_125
*1592 FILLER_51_137
*1593 FILLER_51_149
*1594 FILLER_51_15
*1595 FILLER_51_161
*1596 FILLER_51_167
*1597 FILLER_51_169
*1598 FILLER_51_181
*1599 FILLER_51_193
*1600 FILLER_51_205
*1601 FILLER_51_217
*1602 FILLER_51_223
*1603 FILLER_51_225
*1604 FILLER_51_237
*1605 FILLER_51_249
*1606 FILLER_51_261
*1607 FILLER_51_27
*1608 FILLER_51_273
*1609 FILLER_51_279
*1610 FILLER_51_281
*1611 FILLER_51_293
*1612 FILLER_51_3
*1613 FILLER_51_39
*1614 FILLER_51_51
*1615 FILLER_51_55
*1616 FILLER_51_57
*1617 FILLER_51_69
*1618 FILLER_51_81
*1619 FILLER_51_93
*1620 FILLER_52_109