*SPEF "ieee 1481-1999"
*DESIGN "fraserbc_simon"
*DATE "11:11:11 Fri 11 11, 1111"
*VENDOR "OpenRCX"
*PROGRAM "Parallel Extraction"
*VERSION "1.0"
*DESIGN_FLOW "NAME_SCOPE LOCAL" "PIN_CAP NONE"
*DIVIDER /
*DELIMITER :
*BUS_DELIMITER []
*T_UNIT 1 NS
*C_UNIT 1 PF
*R_UNIT 1 OHM
*L_UNIT 1 HENRY

*NAME_MAP
*1 io_in[0]
*2 io_in[1]
*3 io_in[2]
*4 io_in[3]
*5 io_in[4]
*6 io_in[5]
*7 io_in[6]
*8 io_in[7]
*9 io_out[0]
*10 io_out[1]
*11 io_out[2]
*12 io_out[3]
*13 net6
*14 net7
*15 net8
*16 net9
*19 _000_
*20 _001_
*21 _002_
*22 _003_
*23 _004_
*24 _005_
*25 _006_
*26 _007_
*27 _008_
*28 _009_
*29 _010_
*30 _011_
*31 _012_
*32 _013_
*33 _014_
*34 _015_
*35 _016_
*36 _017_
*37 _018_
*38 _019_
*39 _020_
*40 _021_
*41 _022_
*42 _023_
*43 _024_
*44 _025_
*45 _026_
*46 _027_
*47 _028_
*48 _029_
*49 _030_
*50 _031_
*51 _032_
*52 _033_
*53 _034_
*54 _035_
*55 _036_
*56 _037_
*57 _038_
*58 _039_
*59 _040_
*60 _041_
*61 _042_
*62 _043_
*63 _044_
*64 _045_
*65 _046_
*66 _047_
*67 _048_
*68 _049_
*69 _050_
*70 _051_
*71 _052_
*72 _053_
*73 _054_
*74 _055_
*75 _056_
*76 _057_
*77 _058_
*78 _059_
*79 _060_
*80 _061_
*81 _062_
*82 _063_
*83 _064_
*84 _065_
*85 _066_
*86 _067_
*87 _068_
*88 _069_
*89 _070_
*90 _071_
*91 _072_
*92 _073_
*93 _074_
*94 _075_
*95 _076_
*96 _077_
*97 _078_
*98 _079_
*99 _080_
*100 _081_
*101 _082_
*102 _083_
*103 _084_
*104 _085_
*105 _086_
*106 _087_
*107 _088_
*108 _089_
*109 _090_
*110 _091_
*111 _092_
*112 _093_
*113 _094_
*114 _095_
*115 _096_
*116 _097_
*117 _098_
*118 _099_
*119 _100_
*120 _101_
*121 _102_
*122 _103_
*123 _104_
*124 _105_
*125 _106_
*126 _107_
*127 _108_
*128 _109_
*129 _110_
*130 _111_
*131 _112_
*132 _113_
*133 _114_
*134 _115_
*135 _116_
*136 _117_
*137 _118_
*138 _119_
*139 _120_
*140 _121_
*141 _122_
*142 _123_
*143 _124_
*144 _125_
*145 _126_
*146 _127_
*147 _128_
*148 _129_
*149 _130_
*150 _131_
*151 _132_
*152 _133_
*153 _134_
*154 _135_
*155 _136_
*156 _137_
*157 _138_
*158 _139_
*159 _140_
*160 _141_
*161 _142_
*162 _143_
*163 _144_
*164 _145_
*165 _146_
*166 _147_
*167 _148_
*168 _149_
*169 _150_
*170 _151_
*171 _152_
*172 _153_
*173 _154_
*174 _155_
*175 _156_
*176 _157_
*177 _158_
*178 _159_
*179 _160_
*180 _161_
*181 _162_
*182 _163_
*183 _164_
*184 _165_
*185 _166_
*186 _167_
*187 _168_
*188 _169_
*189 _170_
*190 _171_
*191 _172_
*192 _173_
*193 _174_
*194 _175_
*195 _176_
*196 _177_
*197 _178_
*198 _179_
*199 _180_
*200 _181_
*201 _182_
*202 _183_
*203 _184_
*204 _185_
*205 _186_
*206 _187_
*207 _188_
*208 _189_
*209 _190_
*210 _191_
*211 _192_
*212 _193_
*213 _194_
*214 _195_
*215 _196_
*216 _197_
*217 _198_
*218 _199_
*219 _200_
*220 _201_
*221 _202_
*222 _203_
*223 _204_
*224 _205_
*225 _206_
*226 _207_
*227 _208_
*228 _209_
*229 _210_
*230 _211_
*231 _212_
*232 _213_
*233 _214_
*234 _215_
*235 _216_
*236 _217_
*237 _218_
*238 _219_
*239 _220_
*240 _221_
*241 _222_
*242 _223_
*243 _224_
*244 _225_
*245 _226_
*246 _227_
*247 _228_
*248 _229_
*249 _230_
*250 _231_
*251 _232_
*252 _233_
*253 _234_
*254 _235_
*255 _236_
*256 _237_
*257 _238_
*258 _239_
*259 _240_
*260 _241_
*261 _242_
*262 _243_
*263 _244_
*264 _245_
*265 _246_
*266 _247_
*267 _248_
*268 _249_
*269 _250_
*270 _251_
*271 _252_
*272 _253_
*273 _254_
*274 _255_
*275 _256_
*276 _257_
*277 _258_
*278 _259_
*279 _260_
*280 _261_
*281 _262_
*282 _263_
*283 _264_
*284 _265_
*285 _266_
*286 _267_
*287 _268_
*288 _269_
*289 _270_
*290 _271_
*291 _272_
*292 _273_
*293 _274_
*294 _275_
*295 _276_
*296 _277_
*297 _278_
*298 _279_
*299 _280_
*300 _281_
*301 _282_
*302 _283_
*303 _284_
*304 _285_
*305 _286_
*306 _287_
*307 _288_
*308 _289_
*309 _290_
*310 _291_
*311 _292_
*312 _293_
*313 _294_
*314 _295_
*315 _296_
*316 _297_
*317 _298_
*318 _299_
*319 _300_
*320 _301_
*321 _302_
*322 _303_
*323 _304_
*324 _305_
*325 _306_
*326 _307_
*327 _308_
*328 _309_
*329 _310_
*330 _311_
*331 _312_
*332 _313_
*333 _314_
*334 _315_
*335 _316_
*336 _317_
*337 _318_
*338 _319_
*339 _320_
*340 _321_
*341 _322_
*342 _323_
*343 _324_
*344 _325_
*345 _326_
*346 _327_
*347 _328_
*348 _329_
*349 _330_
*350 _331_
*351 _332_
*352 _333_
*353 _334_
*354 _335_
*355 _336_
*356 _337_
*357 _338_
*358 _339_
*359 _340_
*360 clknet_0_io_in[0]
*361 clknet_3_0__leaf_io_in[0]
*362 clknet_3_1__leaf_io_in[0]
*363 clknet_3_2__leaf_io_in[0]
*364 clknet_3_3__leaf_io_in[0]
*365 clknet_3_4__leaf_io_in[0]
*366 clknet_3_5__leaf_io_in[0]
*367 clknet_3_6__leaf_io_in[0]
*368 clknet_3_7__leaf_io_in[0]
*369 net1
*370 net2
*371 net3
*372 net4
*373 net5
*374 simon0\.lfsr0\.o_data
*375 simon0\.lfsr0\.r_lfsr\[1\]
*376 simon0\.lfsr0\.r_lfsr\[2\]
*377 simon0\.lfsr0\.r_lfsr\[3\]
*378 simon0\.lfsr0\.r_lfsr\[4\]
*379 simon0\.r_key\[0\]
*380 simon0\.r_key\[10\]
*381 simon0\.r_key\[11\]
*382 simon0\.r_key\[12\]
*383 simon0\.r_key\[13\]
*384 simon0\.r_key\[14\]
*385 simon0\.r_key\[15\]
*386 simon0\.r_key\[16\]
*387 simon0\.r_key\[17\]
*388 simon0\.r_key\[18\]
*389 simon0\.r_key\[19\]
*390 simon0\.r_key\[1\]
*391 simon0\.r_key\[20\]
*392 simon0\.r_key\[21\]
*393 simon0\.r_key\[22\]
*394 simon0\.r_key\[23\]
*395 simon0\.r_key\[24\]
*396 simon0\.r_key\[25\]
*397 simon0\.r_key\[26\]
*398 simon0\.r_key\[27\]
*399 simon0\.r_key\[28\]
*400 simon0\.r_key\[29\]
*401 simon0\.r_key\[2\]
*402 simon0\.r_key\[30\]
*403 simon0\.r_key\[31\]
*404 simon0\.r_key\[32\]
*405 simon0\.r_key\[33\]
*406 simon0\.r_key\[34\]
*407 simon0\.r_key\[35\]
*408 simon0\.r_key\[36\]
*409 simon0\.r_key\[37\]
*410 simon0\.r_key\[38\]
*411 simon0\.r_key\[39\]
*412 simon0\.r_key\[3\]
*413 simon0\.r_key\[40\]
*414 simon0\.r_key\[41\]
*415 simon0\.r_key\[42\]
*416 simon0\.r_key\[43\]
*417 simon0\.r_key\[44\]
*418 simon0\.r_key\[45\]
*419 simon0\.r_key\[46\]
*420 simon0\.r_key\[47\]
*421 simon0\.r_key\[48\]
*422 simon0\.r_key\[49\]
*423 simon0\.r_key\[4\]
*424 simon0\.r_key\[50\]
*425 simon0\.r_key\[51\]
*426 simon0\.r_key\[52\]
*427 simon0\.r_key\[53\]
*428 simon0\.r_key\[54\]
*429 simon0\.r_key\[55\]
*430 simon0\.r_key\[56\]
*431 simon0\.r_key\[57\]
*432 simon0\.r_key\[58\]
*433 simon0\.r_key\[59\]
*434 simon0\.r_key\[5\]
*435 simon0\.r_key\[60\]
*436 simon0\.r_key\[61\]
*437 simon0\.r_key\[62\]
*438 simon0\.r_key\[63\]
*439 simon0\.r_key\[6\]
*440 simon0\.r_key\[7\]
*441 simon0\.r_key\[8\]
*442 simon0\.r_key\[9\]
*443 simon0\.r_round\[0\]
*444 simon0\.r_round\[10\]
*445 simon0\.r_round\[11\]
*446 simon0\.r_round\[12\]
*447 simon0\.r_round\[13\]
*448 simon0\.r_round\[14\]
*449 simon0\.r_round\[15\]
*450 simon0\.r_round\[16\]
*451 simon0\.r_round\[17\]
*452 simon0\.r_round\[18\]
*453 simon0\.r_round\[19\]
*454 simon0\.r_round\[1\]
*455 simon0\.r_round\[20\]
*456 simon0\.r_round\[21\]
*457 simon0\.r_round\[22\]
*458 simon0\.r_round\[23\]
*459 simon0\.r_round\[24\]
*460 simon0\.r_round\[25\]
*461 simon0\.r_round\[26\]
*462 simon0\.r_round\[27\]
*463 simon0\.r_round\[28\]
*464 simon0\.r_round\[29\]
*465 simon0\.r_round\[2\]
*466 simon0\.r_round\[30\]
*467 simon0\.r_round\[31\]
*468 simon0\.r_round\[3\]
*469 simon0\.r_round\[4\]
*470 simon0\.r_round\[5\]
*471 simon0\.r_round\[6\]
*472 simon0\.r_round\[7\]
*473 simon0\.r_round\[8\]
*474 simon0\.r_round\[9\]
*475 ANTENNA_0
*476 ANTENNA_1
*477 ANTENNA_10
*478 ANTENNA_11
*479 ANTENNA_12
*480 ANTENNA_13
*481 ANTENNA_14
*482 ANTENNA_2
*483 ANTENNA_3
*484 ANTENNA_4
*485 ANTENNA_5
*486 ANTENNA_6
*487 ANTENNA_7
*488 ANTENNA_8
*489 ANTENNA_9
*490 FILLER_0_109
*491 FILLER_0_113
*492 FILLER_0_125
*493 FILLER_0_137
*494 FILLER_0_141
*495 FILLER_0_15
*496 FILLER_0_153
*497 FILLER_0_165
*498 FILLER_0_169
*499 FILLER_0_181
*500 FILLER_0_193
*501 FILLER_0_197
*502 FILLER_0_209
*503 FILLER_0_221
*504 FILLER_0_225
*505 FILLER_0_237
*506 FILLER_0_249
*507 FILLER_0_253
*508 FILLER_0_265
*509 FILLER_0_27
*510 FILLER_0_277
*511 FILLER_0_281
*512 FILLER_0_29
*513 FILLER_0_293
*514 FILLER_0_3
*515 FILLER_0_41
*516 FILLER_0_53
*517 FILLER_0_57
*518 FILLER_0_69
*519 FILLER_0_81
*520 FILLER_0_85
*521 FILLER_0_97
*522 FILLER_10_111
*523 FILLER_10_119
*524 FILLER_10_136
*525 FILLER_10_141
*526 FILLER_10_153
*527 FILLER_10_165
*528 FILLER_10_177
*529 FILLER_10_189
*530 FILLER_10_195
*531 FILLER_10_206
*532 FILLER_10_219
*533 FILLER_10_232
*534 FILLER_10_24
*535 FILLER_10_244
*536 FILLER_10_253
*537 FILLER_10_261
*538 FILLER_10_271
*539 FILLER_10_283
*540 FILLER_10_29
*541 FILLER_10_295
*542 FILLER_10_3
*543 FILLER_10_41
*544 FILLER_10_66
*545 FILLER_10_78
*546 FILLER_10_85
*547 FILLER_10_90
*548 FILLER_11_108
*549 FILLER_11_113
*550 FILLER_11_140
*551 FILLER_11_15
*552 FILLER_11_152
*553 FILLER_11_164
*554 FILLER_11_169
*555 FILLER_11_173
*556 FILLER_11_177
*557 FILLER_11_185
*558 FILLER_11_189
*559 FILLER_11_193
*560 FILLER_11_198
*561 FILLER_11_202
*562 FILLER_11_213
*563 FILLER_11_220
*564 FILLER_11_225
*565 FILLER_11_233
*566 FILLER_11_240
*567 FILLER_11_248
*568 FILLER_11_258
*569 FILLER_11_270
*570 FILLER_11_278
*571 FILLER_11_281
*572 FILLER_11_293
*573 FILLER_11_3
*574 FILLER_11_36
*575 FILLER_11_48
*576 FILLER_11_57
*577 FILLER_11_69
*578 FILLER_11_87
*579 FILLER_12_121
*580 FILLER_12_133
*581 FILLER_12_139
*582 FILLER_12_158
*583 FILLER_12_166
*584 FILLER_12_170
*585 FILLER_12_183
*586 FILLER_12_191
*587 FILLER_12_195
*588 FILLER_12_197
*589 FILLER_12_205
*590 FILLER_12_218
*591 FILLER_12_231
*592 FILLER_12_24
*593 FILLER_12_244
*594 FILLER_12_262
*595 FILLER_12_274
*596 FILLER_12_286
*597 FILLER_12_29
*598 FILLER_12_298
*599 FILLER_12_3
*600 FILLER_12_33
*601 FILLER_12_52
*602 FILLER_12_60
*603 FILLER_12_7
*604 FILLER_12_80
*605 FILLER_12_85
*606 FILLER_12_97
*607 FILLER_13_108
*608 FILLER_13_113
*609 FILLER_13_125
*610 FILLER_13_150
*611 FILLER_13_158
*612 FILLER_13_164
*613 FILLER_13_169
*614 FILLER_13_181
*615 FILLER_13_194
*616 FILLER_13_201
*617 FILLER_13_220
*618 FILLER_13_234
*619 FILLER_13_247
*620 FILLER_13_25
*621 FILLER_13_260
*622 FILLER_13_272
*623 FILLER_13_281
*624 FILLER_13_293
*625 FILLER_13_3
*626 FILLER_13_45
*627 FILLER_13_49
*628 FILLER_13_55
*629 FILLER_13_57
*630 FILLER_13_7
*631 FILLER_13_80
*632 FILLER_13_88
*633 FILLER_14_120
*634 FILLER_14_132
*635 FILLER_14_158
*636 FILLER_14_166
*637 FILLER_14_178
*638 FILLER_14_191
*639 FILLER_14_195
*640 FILLER_14_200
*641 FILLER_14_219
*642 FILLER_14_232
*643 FILLER_14_24
*644 FILLER_14_245
*645 FILLER_14_251
*646 FILLER_14_262
*647 FILLER_14_274
*648 FILLER_14_286
*649 FILLER_14_29
*650 FILLER_14_298
*651 FILLER_14_3
*652 FILLER_14_46
*653 FILLER_14_58
*654 FILLER_14_62
*655 FILLER_14_7
*656 FILLER_14_80
*657 FILLER_14_85
*658 FILLER_14_97
*659 FILLER_15_105
*660 FILLER_15_111
*661 FILLER_15_130
*662 FILLER_15_150
*663 FILLER_15_162
*664 FILLER_15_169
*665 FILLER_15_173
*666 FILLER_15_177
*667 FILLER_15_182
*668 FILLER_15_189
*669 FILLER_15_201
*670 FILLER_15_214
*671 FILLER_15_222
*672 FILLER_15_234
*673 FILLER_15_24
*674 FILLER_15_246
*675 FILLER_15_258
*676 FILLER_15_270
*677 FILLER_15_278
*678 FILLER_15_281
*679 FILLER_15_293
*680 FILLER_15_3
*681 FILLER_15_32
*682 FILLER_15_52
*683 FILLER_15_57
*684 FILLER_15_69
*685 FILLER_15_7
*686 FILLER_15_93
*687 FILLER_16_111
*688 FILLER_16_123
*689 FILLER_16_135
*690 FILLER_16_139
*691 FILLER_16_141
*692 FILLER_16_153
*693 FILLER_16_165
*694 FILLER_16_171
*695 FILLER_16_185
*696 FILLER_16_192
*697 FILLER_16_200
*698 FILLER_16_204
*699 FILLER_16_211
*700 FILLER_16_219
*701 FILLER_16_225
*702 FILLER_16_237
*703 FILLER_16_24
*704 FILLER_16_249
*705 FILLER_16_253
*706 FILLER_16_265
*707 FILLER_16_277
*708 FILLER_16_289
*709 FILLER_16_29
*710 FILLER_16_297
*711 FILLER_16_3
*712 FILLER_16_33
*713 FILLER_16_53
*714 FILLER_16_7
*715 FILLER_16_74
*716 FILLER_16_82
*717 FILLER_16_85
*718 FILLER_16_93
*719 FILLER_17_106
*720 FILLER_17_113
*721 FILLER_17_125
*722 FILLER_17_137
*723 FILLER_17_14
*724 FILLER_17_149
*725 FILLER_17_161
*726 FILLER_17_167
*727 FILLER_17_169
*728 FILLER_17_194
*729 FILLER_17_206
*730 FILLER_17_218
*731 FILLER_17_225
*732 FILLER_17_237
*733 FILLER_17_249
*734 FILLER_17_261
*735 FILLER_17_273
*736 FILLER_17_279
*737 FILLER_17_281
*738 FILLER_17_293
*739 FILLER_17_36
*740 FILLER_17_48
*741 FILLER_17_57
*742 FILLER_17_6
*743 FILLER_17_69
*744 FILLER_17_73
*745 FILLER_17_94
*746 FILLER_18_108
*747 FILLER_18_116
*748 FILLER_18_136
*749 FILLER_18_157
*750 FILLER_18_170
*751 FILLER_18_187
*752 FILLER_18_195
*753 FILLER_18_197
*754 FILLER_18_209
*755 FILLER_18_221
*756 FILLER_18_236
*757 FILLER_18_24
*758 FILLER_18_248
*759 FILLER_18_253
*760 FILLER_18_265
*761 FILLER_18_277
*762 FILLER_18_289
*763 FILLER_18_29
*764 FILLER_18_297
*765 FILLER_18_3
*766 FILLER_18_37
*767 FILLER_18_57
*768 FILLER_18_7
*769 FILLER_18_78
*770 FILLER_18_85
*771 FILLER_19_101
*772 FILLER_19_109
*773 FILLER_19_113
*774 FILLER_19_125
*775 FILLER_19_137
*776 FILLER_19_149
*777 FILLER_19_161
*778 FILLER_19_167
*779 FILLER_19_169
*780 FILLER_19_174
*781 FILLER_19_20
*782 FILLER_19_200
*783 FILLER_19_212
*784 FILLER_19_216
*785 FILLER_19_220
*786 FILLER_19_235
*787 FILLER_19_247
*788 FILLER_19_259
*789 FILLER_19_271
*790 FILLER_19_279
*791 FILLER_19_281
*792 FILLER_19_293
*793 FILLER_19_3
*794 FILLER_19_41
*795 FILLER_19_53
*796 FILLER_19_57
*797 FILLER_19_79
*798 FILLER_1_106
*799 FILLER_1_113
*800 FILLER_1_125
*801 FILLER_1_144
*802 FILLER_1_15
*803 FILLER_1_156
*804 FILLER_1_169
*805 FILLER_1_181
*806 FILLER_1_193
*807 FILLER_1_208
*808 FILLER_1_215
*809 FILLER_1_223
*810 FILLER_1_225
*811 FILLER_1_237
*812 FILLER_1_249
*813 FILLER_1_261
*814 FILLER_1_27
*815 FILLER_1_273
*816 FILLER_1_279
*817 FILLER_1_281
*818 FILLER_1_293
*819 FILLER_1_3
*820 FILLER_1_39
*821 FILLER_1_51
*822 FILLER_1_55
*823 FILLER_1_57
*824 FILLER_1_82
*825 FILLER_1_94
*826 FILLER_20_109
*827 FILLER_20_121
*828 FILLER_20_133
*829 FILLER_20_139
*830 FILLER_20_141
*831 FILLER_20_153
*832 FILLER_20_165
*833 FILLER_20_174
*834 FILLER_20_191
*835 FILLER_20_195
*836 FILLER_20_197
*837 FILLER_20_209
*838 FILLER_20_221
*839 FILLER_20_228
*840 FILLER_20_24
*841 FILLER_20_240
*842 FILLER_20_253
*843 FILLER_20_265
*844 FILLER_20_277
*845 FILLER_20_289
*846 FILLER_20_29
*847 FILLER_20_297
*848 FILLER_20_3
*849 FILLER_20_41
*850 FILLER_20_53
*851 FILLER_20_61
*852 FILLER_20_80
*853 FILLER_20_85
*854 FILLER_21_105
*855 FILLER_21_111
*856 FILLER_21_113
*857 FILLER_21_125
*858 FILLER_21_14
*859 FILLER_21_147
*860 FILLER_21_159
*861 FILLER_21_167
*862 FILLER_21_169
*863 FILLER_21_177
*864 FILLER_21_182
*865 FILLER_21_194
*866 FILLER_21_206
*867 FILLER_21_220
*868 FILLER_21_225
*869 FILLER_21_235
*870 FILLER_21_248
*871 FILLER_21_261
*872 FILLER_21_273
*873 FILLER_21_279
*874 FILLER_21_281
*875 FILLER_21_293
*876 FILLER_21_36
*877 FILLER_21_48
*878 FILLER_21_57
*879 FILLER_21_6
*880 FILLER_21_69
*881 FILLER_21_93
*882 FILLER_22_109
*883 FILLER_22_121
*884 FILLER_22_133
*885 FILLER_22_139
*886 FILLER_22_141
*887 FILLER_22_153
*888 FILLER_22_165
*889 FILLER_22_171
*890 FILLER_22_178
*891 FILLER_22_185
*892 FILLER_22_192
*893 FILLER_22_210
*894 FILLER_22_214
*895 FILLER_22_22
*896 FILLER_22_237
*897 FILLER_22_249
*898 FILLER_22_262
*899 FILLER_22_274
*900 FILLER_22_286
*901 FILLER_22_29
*902 FILLER_22_298
*903 FILLER_22_3
*904 FILLER_22_41
*905 FILLER_22_53
*906 FILLER_22_61
*907 FILLER_22_80
*908 FILLER_22_85
*909 FILLER_22_97
*910 FILLER_23_110
*911 FILLER_23_113
*912 FILLER_23_125
*913 FILLER_23_137
*914 FILLER_23_149
*915 FILLER_23_15
*916 FILLER_23_161
*917 FILLER_23_167
*918 FILLER_23_172
*919 FILLER_23_182
*920 FILLER_23_186
*921 FILLER_23_197
*922 FILLER_23_204
*923 FILLER_23_213
*924 FILLER_23_221
*925 FILLER_23_234
*926 FILLER_23_242
*927 FILLER_23_258
*928 FILLER_23_27
*929 FILLER_23_271
*930 FILLER_23_279
*931 FILLER_23_281
*932 FILLER_23_293
*933 FILLER_23_3
*934 FILLER_23_39
*935 FILLER_23_51
*936 FILLER_23_55
*937 FILLER_23_57
*938 FILLER_23_86
*939 FILLER_23_98
*940 FILLER_24_109
*941 FILLER_24_126
*942 FILLER_24_138
*943 FILLER_24_141
*944 FILLER_24_15
*945 FILLER_24_153
*946 FILLER_24_165
*947 FILLER_24_175
*948 FILLER_24_192
*949 FILLER_24_197
*950 FILLER_24_210
*951 FILLER_24_214
*952 FILLER_24_225
*953 FILLER_24_233
*954 FILLER_24_248
*955 FILLER_24_266
*956 FILLER_24_27
*957 FILLER_24_278
*958 FILLER_24_29
*959 FILLER_24_290
*960 FILLER_24_298
*961 FILLER_24_3
*962 FILLER_24_41
*963 FILLER_24_53
*964 FILLER_24_80
*965 FILLER_24_85
*966 FILLER_24_97
*967 FILLER_25_110
*968 FILLER_25_113
*969 FILLER_25_125
*970 FILLER_25_131
*971 FILLER_25_148
*972 FILLER_25_15
*973 FILLER_25_160
*974 FILLER_25_169
*975 FILLER_25_177
*976 FILLER_25_183
*977 FILLER_25_196
*978 FILLER_25_208
*979 FILLER_25_220
*980 FILLER_25_238
*981 FILLER_25_250
*982 FILLER_25_27
*983 FILLER_25_273
*984 FILLER_25_279
*985 FILLER_25_281
*986 FILLER_25_293
*987 FILLER_25_3
*988 FILLER_25_39
*989 FILLER_25_51
*990 FILLER_25_55
*991 FILLER_25_57
*992 FILLER_25_69
*993 FILLER_25_98
*994 FILLER_26_122
*995 FILLER_26_134
*996 FILLER_26_141
*997 FILLER_26_153
*998 FILLER_26_165
*999 FILLER_26_171
*1000 FILLER_26_175
*1001 FILLER_26_183
*1002 FILLER_26_192
*1003 FILLER_26_210
*1004 FILLER_26_222
*1005 FILLER_26_228
*1006 FILLER_26_24
*1007 FILLER_26_242
*1008 FILLER_26_250
*1009 FILLER_26_275
*1010 FILLER_26_287
*1011 FILLER_26_29
*1012 FILLER_26_3
*1013 FILLER_26_41
*1014 FILLER_26_53
*1015 FILLER_26_61
*1016 FILLER_26_79
*1017 FILLER_26_83
*1018 FILLER_26_85
*1019 FILLER_26_97
*1020 FILLER_27_105
*1021 FILLER_27_111
*1022 FILLER_27_129
*1023 FILLER_27_141
*1024 FILLER_27_15
*1025 FILLER_27_153
*1026 FILLER_27_165
*1027 FILLER_27_169
*1028 FILLER_27_181
*1029 FILLER_27_200
*1030 FILLER_27_211
*1031 FILLER_27_223
*1032 FILLER_27_238
*1033 FILLER_27_251
*1034 FILLER_27_262
*1035 FILLER_27_27
*1036 FILLER_27_274
*1037 FILLER_27_281
*1038 FILLER_27_293
*1039 FILLER_27_3
*1040 FILLER_27_39
*1041 FILLER_27_51
*1042 FILLER_27_55
*1043 FILLER_27_57
*1044 FILLER_27_63
*1045 FILLER_27_81
*1046 FILLER_27_93
*1047 FILLER_28_109
*1048 FILLER_28_128
*1049 FILLER_28_141
*1050 FILLER_28_153
*1051 FILLER_28_165
*1052 FILLER_28_177
*1053 FILLER_28_189
*1054 FILLER_28_195
*1055 FILLER_28_206
*1056 FILLER_28_218
*1057 FILLER_28_228
*1058 FILLER_28_23
*1059 FILLER_28_234
*1060 FILLER_28_248
*1061 FILLER_28_253
*1062 FILLER_28_265
*1063 FILLER_28_27
*1064 FILLER_28_277
*1065 FILLER_28_289
*1066 FILLER_28_29
*1067 FILLER_28_297
*1068 FILLER_28_3
*1069 FILLER_28_41
*1070 FILLER_28_53
*1071 FILLER_28_61
*1072 FILLER_28_80
*1073 FILLER_28_85
*1074 FILLER_28_97
*1075 FILLER_29_109
*1076 FILLER_29_113
*1077 FILLER_29_125
*1078 FILLER_29_131
*1079 FILLER_29_149
*1080 FILLER_29_161
*1081 FILLER_29_167
*1082 FILLER_29_169
*1083 FILLER_29_181
*1084 FILLER_29_205
*1085 FILLER_29_218
*1086 FILLER_29_225
*1087 FILLER_29_237
*1088 FILLER_29_24
*1089 FILLER_29_249
*1090 FILLER_29_261
*1091 FILLER_29_273
*1092 FILLER_29_279
*1093 FILLER_29_281
*1094 FILLER_29_293
*1095 FILLER_29_3
*1096 FILLER_29_45
*1097 FILLER_29_53
*1098 FILLER_29_57
*1099 FILLER_29_85
*1100 FILLER_29_97
*1101 FILLER_2_119
*1102 FILLER_2_131
*1103 FILLER_2_139
*1104 FILLER_2_141
*1105 FILLER_2_15
*1106 FILLER_2_153
*1107 FILLER_2_165
*1108 FILLER_2_177
*1109 FILLER_2_189
*1110 FILLER_2_195
*1111 FILLER_2_197
*1112 FILLER_2_201
*1113 FILLER_2_218
*1114 FILLER_2_230
*1115 FILLER_2_242
*1116 FILLER_2_250
*1117 FILLER_2_253
*1118 FILLER_2_265
*1119 FILLER_2_27
*1120 FILLER_2_277
*1121 FILLER_2_289
*1122 FILLER_2_29
*1123 FILLER_2_297
*1124 FILLER_2_3
*1125 FILLER_2_41
*1126 FILLER_2_65
*1127 FILLER_2_77
*1128 FILLER_2_83
*1129 FILLER_2_85
*1130 FILLER_2_97
*1131 FILLER_30_102
*1132 FILLER_30_114
*1133 FILLER_30_126
*1134 FILLER_30_138
*1135 FILLER_30_141
*1136 FILLER_30_153
*1137 FILLER_30_165
*1138 FILLER_30_177
*1139 FILLER_30_192
*1140 FILLER_30_200
*1141 FILLER_30_212
*1142 FILLER_30_224
*1143 FILLER_30_236
*1144 FILLER_30_24
*1145 FILLER_30_248
*1146 FILLER_30_253
*1147 FILLER_30_265
*1148 FILLER_30_277
*1149 FILLER_30_289
*1150 FILLER_30_29
*1151 FILLER_30_297
*1152 FILLER_30_3
*1153 FILLER_30_41
*1154 FILLER_30_61
*1155 FILLER_30_73
*1156 FILLER_30_81
*1157 FILLER_31_105
*1158 FILLER_31_111
*1159 FILLER_31_113
*1160 FILLER_31_131
*1161 FILLER_31_151
*1162 FILLER_31_163
*1163 FILLER_31_167
*1164 FILLER_31_169
*1165 FILLER_31_181
*1166 FILLER_31_197
*1167 FILLER_31_209
*1168 FILLER_31_221
*1169 FILLER_31_225
*1170 FILLER_31_237
*1171 FILLER_31_249
*1172 FILLER_31_261
*1173 FILLER_31_27
*1174 FILLER_31_273
*1175 FILLER_31_279
*1176 FILLER_31_281
*1177 FILLER_31_293
*1178 FILLER_31_3
*1179 FILLER_31_52
*1180 FILLER_31_57
*1181 FILLER_31_69
*1182 FILLER_31_8
*1183 FILLER_31_81
*1184 FILLER_31_93
*1185 FILLER_32_101
*1186 FILLER_32_113
*1187 FILLER_32_125
*1188 FILLER_32_137
*1189 FILLER_32_15
*1190 FILLER_32_157
*1191 FILLER_32_169
*1192 FILLER_32_177
*1193 FILLER_32_188
*1194 FILLER_32_197
*1195 FILLER_32_209
*1196 FILLER_32_217
*1197 FILLER_32_227
*1198 FILLER_32_239
*1199 FILLER_32_251
*1200 FILLER_32_253
*1201 FILLER_32_265
*1202 FILLER_32_27
*1203 FILLER_32_277
*1204 FILLER_32_289
*1205 FILLER_32_29
*1206 FILLER_32_297
*1207 FILLER_32_3
*1208 FILLER_32_41
*1209 FILLER_32_53
*1210 FILLER_32_65
*1211 FILLER_32_77
*1212 FILLER_32_83
*1213 FILLER_33_100
*1214 FILLER_33_113
*1215 FILLER_33_125
*1216 FILLER_33_137
*1217 FILLER_33_149
*1218 FILLER_33_15
*1219 FILLER_33_161
*1220 FILLER_33_167
*1221 FILLER_33_169
*1222 FILLER_33_177
*1223 FILLER_33_190
*1224 FILLER_33_197
*1225 FILLER_33_208
*1226 FILLER_33_212
*1227 FILLER_33_220
*1228 FILLER_33_225
*1229 FILLER_33_237
*1230 FILLER_33_249
*1231 FILLER_33_261
*1232 FILLER_33_27
*1233 FILLER_33_273
*1234 FILLER_33_279
*1235 FILLER_33_281
*1236 FILLER_33_293
*1237 FILLER_33_3
*1238 FILLER_33_39
*1239 FILLER_33_51
*1240 FILLER_33_55
*1241 FILLER_33_57
*1242 FILLER_33_69
*1243 FILLER_33_81
*1244 FILLER_33_85
*1245 FILLER_34_109
*1246 FILLER_34_121
*1247 FILLER_34_133
*1248 FILLER_34_139
*1249 FILLER_34_141
*1250 FILLER_34_15
*1251 FILLER_34_153
*1252 FILLER_34_161
*1253 FILLER_34_165
*1254 FILLER_34_172
*1255 FILLER_34_186
*1256 FILLER_34_194
*1257 FILLER_34_200
*1258 FILLER_34_212
*1259 FILLER_34_224
*1260 FILLER_34_232
*1261 FILLER_34_242
*1262 FILLER_34_250
*1263 FILLER_34_253
*1264 FILLER_34_265
*1265 FILLER_34_27
*1266 FILLER_34_277
*1267 FILLER_34_289
*1268 FILLER_34_29
*1269 FILLER_34_297
*1270 FILLER_34_3
*1271 FILLER_34_41
*1272 FILLER_34_53
*1273 FILLER_34_65
*1274 FILLER_34_77
*1275 FILLER_34_83
*1276 FILLER_34_85
*1277 FILLER_34_97
*1278 FILLER_35_104
*1279 FILLER_35_113
*1280 FILLER_35_125
*1281 FILLER_35_137
*1282 FILLER_35_149
*1283 FILLER_35_15
*1284 FILLER_35_161
*1285 FILLER_35_167
*1286 FILLER_35_169
*1287 FILLER_35_179
*1288 FILLER_35_192
*1289 FILLER_35_204
*1290 FILLER_35_214
*1291 FILLER_35_222
*1292 FILLER_35_225
*1293 FILLER_35_237
*1294 FILLER_35_249
*1295 FILLER_35_261
*1296 FILLER_35_27
*1297 FILLER_35_273
*1298 FILLER_35_279
*1299 FILLER_35_281
*1300 FILLER_35_293
*1301 FILLER_35_3
*1302 FILLER_35_39
*1303 FILLER_35_51
*1304 FILLER_35_55
*1305 FILLER_35_57
*1306 FILLER_35_69
*1307 FILLER_35_81
*1308 FILLER_35_93
*1309 FILLER_36_109
*1310 FILLER_36_121
*1311 FILLER_36_133
*1312 FILLER_36_139
*1313 FILLER_36_141
*1314 FILLER_36_153
*1315 FILLER_36_165
*1316 FILLER_36_179
*1317 FILLER_36_18
*1318 FILLER_36_190
*1319 FILLER_36_204
*1320 FILLER_36_216
*1321 FILLER_36_228
*1322 FILLER_36_240
*1323 FILLER_36_253
*1324 FILLER_36_26
*1325 FILLER_36_265
*1326 FILLER_36_277
*1327 FILLER_36_289
*1328 FILLER_36_297
*1329 FILLER_36_3
*1330 FILLER_36_32
*1331 FILLER_36_40
*1332 FILLER_36_47
*1333 FILLER_36_51
*1334 FILLER_36_55
*1335 FILLER_36_66
*1336 FILLER_36_74
*1337 FILLER_36_82
*1338 FILLER_36_85
*1339 FILLER_36_97
*1340 FILLER_37_108
*1341 FILLER_37_113
*1342 FILLER_37_125
*1343 FILLER_37_137
*1344 FILLER_37_149
*1345 FILLER_37_161
*1346 FILLER_37_167
*1347 FILLER_37_169
*1348 FILLER_37_182
*1349 FILLER_37_194
*1350 FILLER_37_20
*1351 FILLER_37_206
*1352 FILLER_37_218
*1353 FILLER_37_225
*1354 FILLER_37_237
*1355 FILLER_37_249
*1356 FILLER_37_261
*1357 FILLER_37_273
*1358 FILLER_37_279
*1359 FILLER_37_281
*1360 FILLER_37_293
*1361 FILLER_37_3
*1362 FILLER_37_32
*1363 FILLER_37_38
*1364 FILLER_37_51
*1365 FILLER_37_55
*1366 FILLER_37_61
*1367 FILLER_37_7
*1368 FILLER_37_76
*1369 FILLER_37_84
*1370 FILLER_37_96
*1371 FILLER_38_109
*1372 FILLER_38_11
*1373 FILLER_38_115
*1374 FILLER_38_127
*1375 FILLER_38_132
*1376 FILLER_38_141
*1377 FILLER_38_153
*1378 FILLER_38_165
*1379 FILLER_38_169
*1380 FILLER_38_173
*1381 FILLER_38_180
*1382 FILLER_38_192
*1383 FILLER_38_197
*1384 FILLER_38_205
*1385 FILLER_38_212
*1386 FILLER_38_22
*1387 FILLER_38_224
*1388 FILLER_38_236
*1389 FILLER_38_248
*1390 FILLER_38_253
*1391 FILLER_38_265
*1392 FILLER_38_277
*1393 FILLER_38_289
*1394 FILLER_38_297
*1395 FILLER_38_3
*1396 FILLER_38_38
*1397 FILLER_38_45
*1398 FILLER_38_52
*1399 FILLER_38_60
*1400 FILLER_38_66
*1401 FILLER_38_70
*1402 FILLER_38_77
*1403 FILLER_38_83
*1404 FILLER_38_85
*1405 FILLER_38_97
*1406 FILLER_39_103
*1407 FILLER_39_11
*1408 FILLER_39_111
*1409 FILLER_39_116
*1410 FILLER_39_125
*1411 FILLER_39_133
*1412 FILLER_39_145
*1413 FILLER_39_15
*1414 FILLER_39_153
*1415 FILLER_39_162
*1416 FILLER_39_169
*1417 FILLER_39_173
*1418 FILLER_39_183
*1419 FILLER_39_19
*1420 FILLER_39_196
*1421 FILLER_39_209
*1422 FILLER_39_220
*1423 FILLER_39_225
*1424 FILLER_39_23
*1425 FILLER_39_231
*1426 FILLER_39_239
*1427 FILLER_39_251
*1428 FILLER_39_263
*1429 FILLER_39_275
*1430 FILLER_39_279
*1431 FILLER_39_281
*1432 FILLER_39_293
*1433 FILLER_39_3
*1434 FILLER_39_30
*1435 FILLER_39_37
*1436 FILLER_39_49
*1437 FILLER_39_55
*1438 FILLER_39_57
*1439 FILLER_39_66
*1440 FILLER_39_73
*1441 FILLER_39_85
*1442 FILLER_39_91
*1443 FILLER_3_108
*1444 FILLER_3_113
*1445 FILLER_3_125
*1446 FILLER_3_129
*1447 FILLER_3_146
*1448 FILLER_3_158
*1449 FILLER_3_166
*1450 FILLER_3_169
*1451 FILLER_3_181
*1452 FILLER_3_193
*1453 FILLER_3_197
*1454 FILLER_3_220
*1455 FILLER_3_247
*1456 FILLER_3_259
*1457 FILLER_3_26
*1458 FILLER_3_271
*1459 FILLER_3_279
*1460 FILLER_3_281
*1461 FILLER_3_293
*1462 FILLER_3_3
*1463 FILLER_3_34
*1464 FILLER_3_52
*1465 FILLER_3_57
*1466 FILLER_3_69
*1467 FILLER_3_87
*1468 FILLER_40_109
*1469 FILLER_40_11
*1470 FILLER_40_121
*1471 FILLER_40_133
*1472 FILLER_40_139
*1473 FILLER_40_141
*1474 FILLER_40_153
*1475 FILLER_40_160
*1476 FILLER_40_17
*1477 FILLER_40_179
*1478 FILLER_40_192
*1479 FILLER_40_210
*1480 FILLER_40_218
*1481 FILLER_40_230
*1482 FILLER_40_242
*1483 FILLER_40_25
*1484 FILLER_40_250
*1485 FILLER_40_253
*1486 FILLER_40_265
*1487 FILLER_40_277
*1488 FILLER_40_289
*1489 FILLER_40_297
*1490 FILLER_40_3
*1491 FILLER_40_33
*1492 FILLER_40_41
*1493 FILLER_40_50
*1494 FILLER_40_64
*1495 FILLER_40_76
*1496 FILLER_40_85
*1497 FILLER_40_97
*1498 FILLER_41_104
*1499 FILLER_41_108
*1500 FILLER_41_113
*1501 FILLER_41_125
*1502 FILLER_41_137
*1503 FILLER_41_149
*1504 FILLER_41_15
*1505 FILLER_41_153
*1506 FILLER_41_164
*1507 FILLER_41_169
*1508 FILLER_41_179
*1509 FILLER_41_187
*1510 FILLER_41_21
*1511 FILLER_41_211
*1512 FILLER_41_219
*1513 FILLER_41_223
*1514 FILLER_41_232
*1515 FILLER_41_243
*1516 FILLER_41_255
*1517 FILLER_41_267
*1518 FILLER_41_27
*1519 FILLER_41_279
*1520 FILLER_41_281
*1521 FILLER_41_293
*1522 FILLER_41_3
*1523 FILLER_41_31
*1524 FILLER_41_43
*1525 FILLER_41_55
*1526 FILLER_41_57
*1527 FILLER_41_69
*1528 FILLER_41_75
*1529 FILLER_41_86
*1530 FILLER_41_98
*1531 FILLER_42_109
*1532 FILLER_42_121
*1533 FILLER_42_125
*1534 FILLER_42_132
*1535 FILLER_42_141
*1536 FILLER_42_15
*1537 FILLER_42_153
*1538 FILLER_42_165
*1539 FILLER_42_173
*1540 FILLER_42_177
*1541 FILLER_42_190
*1542 FILLER_42_207
*1543 FILLER_42_218
*1544 FILLER_42_230
*1545 FILLER_42_242
*1546 FILLER_42_250
*1547 FILLER_42_253
*1548 FILLER_42_265
*1549 FILLER_42_27
*1550 FILLER_42_277
*1551 FILLER_42_289
*1552 FILLER_42_29
*1553 FILLER_42_297
*1554 FILLER_42_3
*1555 FILLER_42_41
*1556 FILLER_42_53
*1557 FILLER_42_66
*1558 FILLER_42_78
*1559 FILLER_42_85
*1560 FILLER_42_97
*1561 FILLER_43_102
*1562 FILLER_43_110
*1563 FILLER_43_113
*1564 FILLER_43_128
*1565 FILLER_43_140
*1566 FILLER_43_15
*1567 FILLER_43_152
*1568 FILLER_43_164
*1569 FILLER_43_169
*1570 FILLER_43_191
*1571 FILLER_43_208
*1572 FILLER_43_21
*1573 FILLER_43_219
*1574 FILLER_43_223
*1575 FILLER_43_225
*1576 FILLER_43_237
*1577 FILLER_43_249
*1578 FILLER_43_261
*1579 FILLER_43_273
*1580 FILLER_43_279
*1581 FILLER_43_281
*1582 FILLER_43_293
*1583 FILLER_43_3
*1584 FILLER_43_33
*1585 FILLER_43_42
*1586 FILLER_43_54
*1587 FILLER_43_57
*1588 FILLER_43_69
*1589 FILLER_43_76
*1590 FILLER_43_84
*1591 FILLER_43_90
*1592 FILLER_44_109
*1593 FILLER_44_121
*1594 FILLER_44_133
*1595 FILLER_44_139
*1596 FILLER_44_141
*1597 FILLER_44_15
*1598 FILLER_44_160
*1599 FILLER_44_172
*1600 FILLER_44_180
*1601 FILLER_44_192
*1602 FILLER_44_206
*1603 FILLER_44_218
*1604 FILLER_44_230
*1605 FILLER_44_242
*1606 FILLER_44_250
*1607 FILLER_44_253
*1608 FILLER_44_265
*1609 FILLER_44_27
*1610 FILLER_44_277
*1611 FILLER_44_289
*1612 FILLER_44_29
*1613 FILLER_44_297
*1614 FILLER_44_3
*1615 FILLER_44_41
*1616 FILLER_44_53
*1617 FILLER_44_58
*1618 FILLER_44_69
*1619 FILLER_44_81
*1620 FILLER_44_85
*1621 FILLER_44_97
*1622 FILLER_45_101
*1623 FILLER_45_109
*1624 FILLER_45_113
*1625 FILLER_45_125
*1626 FILLER_45_137
*1627 FILLER_45_149
*1628 FILLER_45_15
*1629 FILLER_45_161
*1630 FILLER_45_167
*1631 FILLER_45_169
*1632 FILLER_45_181
*1633 FILLER_45_193
*1634 FILLER_45_205
*1635 FILLER_45_220
*1636 FILLER_45_225
*1637 FILLER_45_237
*1638 FILLER_45_245
*1639 FILLER_45_257
*1640 FILLER_45_269
*1641 FILLER_45_27
*1642 FILLER_45_277
*1643 FILLER_45_281
*1644 FILLER_45_293
*1645 FILLER_45_3
*1646 FILLER_45_39
*1647 FILLER_45_51
*1648 FILLER_45_55
*1649 FILLER_45_57
*1650 FILLER_45_61
*1651 FILLER_45_65
*1652 FILLER_45_72
*1653 FILLER_45_93
*1654 FILLER_46_106
*1655 FILLER_46_114
*1656 FILLER_46_122
*1657 FILLER_46_128
*1658 FILLER_46_136
*1659 FILLER_46_141
*1660 FILLER_46_149
*1661 FILLER_46_158
*1662 FILLER_46_170
*1663 FILLER_46_176
*1664 FILLER_46_18
*1665 FILLER_46_190
*1666 FILLER_46_204
*1667 FILLER_46_215
*1668 FILLER_46_226
*1669 FILLER_46_237
*1670 FILLER_46_249
*1671 FILLER_46_253
*1672 FILLER_46_26
*1673 FILLER_46_265
*1674 FILLER_46_277
*1675 FILLER_46_289
*1676 FILLER_46_29