*SPEF "ieee 1481-1999"
*DESIGN "frog"
*DATE "11:11:11 Fri 11 11, 1111"
*VENDOR "OpenRCX"
*PROGRAM "Parallel Extraction"
*VERSION "1.0"
*DESIGN_FLOW "NAME_SCOPE LOCAL" "PIN_CAP NONE"
*DIVIDER /
*DELIMITER :
*BUS_DELIMITER []
*T_UNIT 1 NS
*C_UNIT 1 PF
*R_UNIT 1 OHM
*L_UNIT 1 HENRY

*NAME_MAP
*1 io_in[0]
*2 io_in[1]
*3 io_in[2]
*4 io_in[3]
*5 io_in[4]
*6 io_in[5]
*7 io_in[6]
*8 io_in[7]
*9 io_out[0]
*10 io_out[1]
*11 io_out[2]
*12 io_out[3]
*13 io_out[4]
*14 io_out[5]
*15 io_out[6]
*16 io_out[7]
*19 _000_
*20 _001_
*21 _002_
*22 _003_
*23 _004_
*24 _005_
*25 _006_
*26 _007_
*27 _008_
*28 _009_
*29 _010_
*30 _011_
*31 _012_
*32 _013_
*33 _014_
*34 _015_
*35 _016_
*36 _017_
*37 _018_
*38 _019_
*39 _020_
*40 _021_
*41 _022_
*42 _023_
*43 _024_
*44 _025_
*45 _026_
*46 _027_
*47 _028_
*48 _029_
*49 _030_
*50 _031_
*51 _032_
*52 _033_
*53 _034_
*54 _035_
*55 _036_
*56 _037_
*57 _038_
*58 _039_
*59 _040_
*60 _041_
*61 _042_
*62 _043_
*63 _044_
*64 _045_
*65 _046_
*66 _047_
*67 _048_
*68 _049_
*69 _050_
*70 _051_
*71 _052_
*72 _053_
*73 _054_
*74 _055_
*75 _056_
*76 _057_
*77 _058_
*78 _059_
*79 _060_
*80 _061_
*81 _062_
*82 _063_
*83 _064_
*84 _065_
*85 _066_
*86 _067_
*87 _068_
*88 _069_
*89 _070_
*90 _071_
*91 _072_
*92 _073_
*93 _074_
*94 _075_
*95 _076_
*96 _077_
*97 _078_
*98 _079_
*99 _080_
*100 _081_
*101 _082_
*102 _083_
*103 _084_
*104 _085_
*105 _086_
*106 _087_
*107 _088_
*108 _089_
*109 _090_
*110 _091_
*111 _092_
*112 _093_
*113 _094_
*114 _095_
*115 _096_
*116 _097_
*117 _098_
*118 _099_
*119 _100_
*120 _101_
*121 _102_
*122 _103_
*123 _104_
*124 _105_
*125 _106_
*126 _107_
*127 _108_
*128 _109_
*129 _110_
*130 _111_
*131 _112_
*132 _113_
*133 _114_
*134 _115_
*135 _116_
*136 _117_
*137 _118_
*138 _119_
*139 _120_
*140 _121_
*141 _122_
*142 _123_
*143 _124_
*144 _125_
*145 _126_
*146 _127_
*147 _128_
*148 _129_
*149 _130_
*150 _131_
*151 _132_
*152 _133_
*153 _134_
*154 _135_
*155 _136_
*156 _137_
*157 _138_
*158 _139_
*159 _140_
*160 _141_
*161 _142_
*162 _143_
*163 _144_
*164 _145_
*165 _146_
*166 _147_
*167 _148_
*168 _149_
*169 _150_
*170 _151_
*171 _152_
*172 _153_
*173 _154_
*174 _155_
*175 _156_
*176 _157_
*177 _158_
*178 _159_
*179 _160_
*180 _161_
*181 _162_
*182 _163_
*183 _164_
*184 _165_
*185 _166_
*186 _167_
*187 _168_
*188 _169_
*189 _170_
*190 _171_
*191 _172_
*192 _173_
*193 _174_
*194 _175_
*195 _176_
*196 _177_
*197 _178_
*198 _179_
*199 _180_
*200 _181_
*201 _182_
*202 _183_
*203 _184_
*204 _185_
*205 _186_
*206 _187_
*207 _188_
*208 _189_
*209 _190_
*210 _191_
*211 _192_
*212 _193_
*213 _194_
*214 _195_
*215 _196_
*216 _197_
*217 _198_
*218 _199_
*219 _200_
*220 _201_
*221 _202_
*222 _203_
*223 _204_
*224 _205_
*225 _206_
*226 _207_
*227 _208_
*228 _209_
*229 _210_
*230 _211_
*231 _212_
*232 _213_
*233 _214_
*234 _215_
*235 _216_
*236 _217_
*237 _218_
*238 _219_
*239 _220_
*240 _221_
*241 _222_
*242 _223_
*243 _224_
*244 _225_
*245 _226_
*246 _227_
*247 _228_
*248 _229_
*249 _230_
*250 _231_
*251 _232_
*252 _233_
*253 _234_
*254 _235_
*255 _236_
*256 _237_
*257 _238_
*258 _239_
*259 _240_
*260 _241_
*261 _242_
*262 _243_
*263 _244_
*264 _245_
*265 _246_
*266 _247_
*267 _248_
*268 _249_
*269 _250_
*270 _251_
*271 _252_
*272 _253_
*273 _254_
*274 _255_
*275 _256_
*276 _257_
*277 _258_
*278 _259_
*279 _260_
*280 _261_
*281 _262_
*282 _263_
*283 _264_
*284 _265_
*285 _266_
*286 _267_
*287 _268_
*288 _269_
*289 _270_
*290 _271_
*291 _272_
*292 _273_
*293 _274_
*294 _275_
*295 _276_
*296 _277_
*297 _278_
*298 _279_
*299 _280_
*300 _281_
*301 _282_
*302 _283_
*303 _284_
*304 _285_
*305 _286_
*306 _287_
*307 _288_
*308 _289_
*309 _290_
*310 _291_
*311 _292_
*312 _293_
*313 _294_
*314 _295_
*315 _296_
*316 _297_
*317 _298_
*318 _299_
*319 _300_
*320 _301_
*321 _302_
*322 _303_
*323 _304_
*324 _305_
*325 clknet_0_io_in[0]
*326 clknet_2_0__leaf_io_in[0]
*327 clknet_2_1__leaf_io_in[0]
*328 clknet_2_2__leaf_io_in[0]
*329 clknet_2_3__leaf_io_in[0]
*330 net1
*331 net2
*332 net3
*333 net4
*334 net5
*335 net6
*336 opcode_lsb\[0\]
*337 opcode_lsb\[1\]
*338 opcode_lsb\[2\]
*339 pc\[0\]
*340 pc\[1\]
*341 pc\[2\]
*342 pc\[3\]
*343 pc\[4\]
*344 pc\[5\]
*345 pc\[6\]
*346 reg_a\[0\]
*347 reg_a\[1\]
*348 reg_a\[2\]
*349 reg_a\[3\]
*350 reg_b\[0\]
*351 reg_b\[1\]
*352 reg_b\[2\]
*353 reg_b\[3\]
*354 state\[0\]
*355 state\[1\]
*356 state\[2\]
*357 state\[3\]
*358 state\[4\]
*359 state\[5\]
*360 tmp\[0\]
*361 tmp\[1\]
*362 tmp\[2\]
*363 tmp\[3\]
*364 tmp\[4\]
*365 tmp\[5\]
*366 tmp\[6\]
*367 wcyc
*368 ANTENNA_0
*369 ANTENNA_1
*370 FILLER_0_102
*371 FILLER_0_110
*372 FILLER_0_113
*373 FILLER_0_121
*374 FILLER_0_125
*375 FILLER_0_137
*376 FILLER_0_141
*377 FILLER_0_153
*378 FILLER_0_165
*379 FILLER_0_169
*380 FILLER_0_181
*381 FILLER_0_193
*382 FILLER_0_197
*383 FILLER_0_209
*384 FILLER_0_221
*385 FILLER_0_225
*386 FILLER_0_237
*387 FILLER_0_24
*388 FILLER_0_249
*389 FILLER_0_253
*390 FILLER_0_265
*391 FILLER_0_277
*392 FILLER_0_281
*393 FILLER_0_29
*394 FILLER_0_293
*395 FILLER_0_41
*396 FILLER_0_53
*397 FILLER_0_60
*398 FILLER_0_66
*399 FILLER_0_73
*400 FILLER_0_80
*401 FILLER_0_88
*402 FILLER_0_95
*403 FILLER_10_104
*404 FILLER_10_113
*405 FILLER_10_121
*406 FILLER_10_130
*407 FILLER_10_138
*408 FILLER_10_149
*409 FILLER_10_161
*410 FILLER_10_173
*411 FILLER_10_181
*412 FILLER_10_193
*413 FILLER_10_201
*414 FILLER_10_213
*415 FILLER_10_225
*416 FILLER_10_237
*417 FILLER_10_24
*418 FILLER_10_249
*419 FILLER_10_253
*420 FILLER_10_265
*421 FILLER_10_277
*422 FILLER_10_289
*423 FILLER_10_297
*424 FILLER_10_3
*425 FILLER_10_49
*426 FILLER_10_64
*427 FILLER_10_78
*428 FILLER_10_88
*429 FILLER_10_94
*430 FILLER_11_102
*431 FILLER_11_110
*432 FILLER_11_12
*433 FILLER_11_122
*434 FILLER_11_126
*435 FILLER_11_133
*436 FILLER_11_140
*437 FILLER_11_148
*438 FILLER_11_157
*439 FILLER_11_165
*440 FILLER_11_169
*441 FILLER_11_181
*442 FILLER_11_193
*443 FILLER_11_205
*444 FILLER_11_217
*445 FILLER_11_223
*446 FILLER_11_225
*447 FILLER_11_237
*448 FILLER_11_249
*449 FILLER_11_261
*450 FILLER_11_273
*451 FILLER_11_279
*452 FILLER_11_281
*453 FILLER_11_293
*454 FILLER_11_3
*455 FILLER_11_36
*456 FILLER_11_49
*457 FILLER_11_55
*458 FILLER_11_62
*459 FILLER_11_75
*460 FILLER_11_88
*461 FILLER_12_108
*462 FILLER_12_115
*463 FILLER_12_130
*464 FILLER_12_138
*465 FILLER_12_147
*466 FILLER_12_154
*467 FILLER_12_166
*468 FILLER_12_178
*469 FILLER_12_18
*470 FILLER_12_190
*471 FILLER_12_197
*472 FILLER_12_209
*473 FILLER_12_221
*474 FILLER_12_233
*475 FILLER_12_24
*476 FILLER_12_245
*477 FILLER_12_251
*478 FILLER_12_253
*479 FILLER_12_265
*480 FILLER_12_277
*481 FILLER_12_289
*482 FILLER_12_29
*483 FILLER_12_297
*484 FILLER_12_37
*485 FILLER_12_49
*486 FILLER_12_59
*487 FILLER_12_6
*488 FILLER_12_63
*489 FILLER_12_69
*490 FILLER_12_80
*491 FILLER_12_85
*492 FILLER_12_96
*493 FILLER_13_105
*494 FILLER_13_11
*495 FILLER_13_111
*496 FILLER_13_113
*497 FILLER_13_118
*498 FILLER_13_122
*499 FILLER_13_130
*500 FILLER_13_137
*501 FILLER_13_141
*502 FILLER_13_148
*503 FILLER_13_158
*504 FILLER_13_166
*505 FILLER_13_169
*506 FILLER_13_181
*507 FILLER_13_193
*508 FILLER_13_205
*509 FILLER_13_217
*510 FILLER_13_223
*511 FILLER_13_225
*512 FILLER_13_237
*513 FILLER_13_249
*514 FILLER_13_261
*515 FILLER_13_273
*516 FILLER_13_279
*517 FILLER_13_281
*518 FILLER_13_293
*519 FILLER_13_3
*520 FILLER_13_34
*521 FILLER_13_45
*522 FILLER_13_52
*523 FILLER_13_57
*524 FILLER_13_70
*525 FILLER_13_84
*526 FILLER_13_97
*527 FILLER_14_107
*528 FILLER_14_115
*529 FILLER_14_121
*530 FILLER_14_129
*531 FILLER_14_136
*532 FILLER_14_141
*533 FILLER_14_15
*534 FILLER_14_154
*535 FILLER_14_161
*536 FILLER_14_173
*537 FILLER_14_185
*538 FILLER_14_193
*539 FILLER_14_197
*540 FILLER_14_209
*541 FILLER_14_221
*542 FILLER_14_233
*543 FILLER_14_24
*544 FILLER_14_245
*545 FILLER_14_251
*546 FILLER_14_253
*547 FILLER_14_265
*548 FILLER_14_277
*549 FILLER_14_289
*550 FILLER_14_297
*551 FILLER_14_3
*552 FILLER_14_37
*553 FILLER_14_45
*554 FILLER_14_56
*555 FILLER_14_64
*556 FILLER_14_70
*557 FILLER_14_79
*558 FILLER_14_83
*559 FILLER_14_85
*560 FILLER_14_89
*561 FILLER_14_99
*562 FILLER_15_102
*563 FILLER_15_110
*564 FILLER_15_122
*565 FILLER_15_136
*566 FILLER_15_146
*567 FILLER_15_153
*568 FILLER_15_164
*569 FILLER_15_172
*570 FILLER_15_18
*571 FILLER_15_184
*572 FILLER_15_196
*573 FILLER_15_208
*574 FILLER_15_22
*575 FILLER_15_220
*576 FILLER_15_225
*577 FILLER_15_237
*578 FILLER_15_249
*579 FILLER_15_261
*580 FILLER_15_273
*581 FILLER_15_279
*582 FILLER_15_281
*583 FILLER_15_293
*584 FILLER_15_46
*585 FILLER_15_54
*586 FILLER_15_6
*587 FILLER_15_64
*588 FILLER_15_72
*589 FILLER_15_85
*590 FILLER_15_91
*591 FILLER_16_107
*592 FILLER_16_117
*593 FILLER_16_131
*594 FILLER_16_139
*595 FILLER_16_148
*596 FILLER_16_156
*597 FILLER_16_168
*598 FILLER_16_180
*599 FILLER_16_192
*600 FILLER_16_197
*601 FILLER_16_209
*602 FILLER_16_221
*603 FILLER_16_233
*604 FILLER_16_24
*605 FILLER_16_245
*606 FILLER_16_251
*607 FILLER_16_253
*608 FILLER_16_265
*609 FILLER_16_277
*610 FILLER_16_289
*611 FILLER_16_29
*612 FILLER_16_297
*613 FILLER_16_3
*614 FILLER_16_37
*615 FILLER_16_45
*616 FILLER_16_52
*617 FILLER_16_60
*618 FILLER_16_68
*619 FILLER_16_74
*620 FILLER_16_80
*621 FILLER_16_94
*622 FILLER_17_107
*623 FILLER_17_111
*624 FILLER_17_113
*625 FILLER_17_118
*626 FILLER_17_132
*627 FILLER_17_150
*628 FILLER_17_161
*629 FILLER_17_167
*630 FILLER_17_169
*631 FILLER_17_181
*632 FILLER_17_193
*633 FILLER_17_205
*634 FILLER_17_217
*635 FILLER_17_223
*636 FILLER_17_225
*637 FILLER_17_237
*638 FILLER_17_24
*639 FILLER_17_249
*640 FILLER_17_261
*641 FILLER_17_273
*642 FILLER_17_279
*643 FILLER_17_281
*644 FILLER_17_293
*645 FILLER_17_3
*646 FILLER_17_37
*647 FILLER_17_45
*648 FILLER_17_52
*649 FILLER_17_57
*650 FILLER_17_69
*651 FILLER_17_82
*652 FILLER_17_90
*653 FILLER_17_94
*654 FILLER_18_101
*655 FILLER_18_111
*656 FILLER_18_121
*657 FILLER_18_131
*658 FILLER_18_139
*659 FILLER_18_147
*660 FILLER_18_153
*661 FILLER_18_159
*662 FILLER_18_167
*663 FILLER_18_179
*664 FILLER_18_191
*665 FILLER_18_195
*666 FILLER_18_197
*667 FILLER_18_209
*668 FILLER_18_221
*669 FILLER_18_233
*670 FILLER_18_24
*671 FILLER_18_245
*672 FILLER_18_251
*673 FILLER_18_253
*674 FILLER_18_265
*675 FILLER_18_277
*676 FILLER_18_289
*677 FILLER_18_29
*678 FILLER_18_297
*679 FILLER_18_3
*680 FILLER_18_33
*681 FILLER_18_46
*682 FILLER_18_59
*683 FILLER_18_73
*684 FILLER_18_81
*685 FILLER_18_88
*686 FILLER_19_102
*687 FILLER_19_110
*688 FILLER_19_122
*689 FILLER_19_130
*690 FILLER_19_142
*691 FILLER_19_15
*692 FILLER_19_151
*693 FILLER_19_158
*694 FILLER_19_166
*695 FILLER_19_169
*696 FILLER_19_181
*697 FILLER_19_193
*698 FILLER_19_205
*699 FILLER_19_217
*700 FILLER_19_223
*701 FILLER_19_225
*702 FILLER_19_237
*703 FILLER_19_249
*704 FILLER_19_261
*705 FILLER_19_273
*706 FILLER_19_279
*707 FILLER_19_281
*708 FILLER_19_293
*709 FILLER_19_3
*710 FILLER_19_37
*711 FILLER_19_44
*712 FILLER_19_51
*713 FILLER_19_55
*714 FILLER_19_60
*715 FILLER_19_77
*716 FILLER_19_88
*717 FILLER_1_108
*718 FILLER_1_116
*719 FILLER_1_129
*720 FILLER_1_143
*721 FILLER_1_15
*722 FILLER_1_155
*723 FILLER_1_167
*724 FILLER_1_169
*725 FILLER_1_181
*726 FILLER_1_193
*727 FILLER_1_205
*728 FILLER_1_217
*729 FILLER_1_223
*730 FILLER_1_225
*731 FILLER_1_23
*732 FILLER_1_237
*733 FILLER_1_249
*734 FILLER_1_261
*735 FILLER_1_273
*736 FILLER_1_279
*737 FILLER_1_281
*738 FILLER_1_293
*739 FILLER_1_3
*740 FILLER_1_49
*741 FILLER_1_55
*742 FILLER_1_60
*743 FILLER_1_67
*744 FILLER_1_81
*745 FILLER_1_90
*746 FILLER_1_97
*747 FILLER_20_105
*748 FILLER_20_117
*749 FILLER_20_13
*750 FILLER_20_130
*751 FILLER_20_138
*752 FILLER_20_148
*753 FILLER_20_160
*754 FILLER_20_172
*755 FILLER_20_184
*756 FILLER_20_197
*757 FILLER_20_209
*758 FILLER_20_221
*759 FILLER_20_233
*760 FILLER_20_245
*761 FILLER_20_25
*762 FILLER_20_251
*763 FILLER_20_253
*764 FILLER_20_265
*765 FILLER_20_277
*766 FILLER_20_289
*767 FILLER_20_297
*768 FILLER_20_38
*769 FILLER_20_42
*770 FILLER_20_46
*771 FILLER_20_54
*772 FILLER_20_66
*773 FILLER_20_78
*774 FILLER_20_85
*775 FILLER_20_97
*776 FILLER_21_101
*777 FILLER_21_109
*778 FILLER_21_123
*779 FILLER_21_127
*780 FILLER_21_136
*781 FILLER_21_147
*782 FILLER_21_156
*783 FILLER_21_169
*784 FILLER_21_181
*785 FILLER_21_193
*786 FILLER_21_205
*787 FILLER_21_217
*788 FILLER_21_223
*789 FILLER_21_225
*790 FILLER_21_23
*791 FILLER_21_237
*792 FILLER_21_249
*793 FILLER_21_261
*794 FILLER_21_27
*795 FILLER_21_273
*796 FILLER_21_279
*797 FILLER_21_281
*798 FILLER_21_293
*799 FILLER_21_37
*800 FILLER_21_52
*801 FILLER_21_57
*802 FILLER_21_74
*803 FILLER_21_80
*804 FILLER_21_86
*805 FILLER_22_101
*806 FILLER_22_109
*807 FILLER_22_120
*808 FILLER_22_127
*809 FILLER_22_139
*810 FILLER_22_141
*811 FILLER_22_148
*812 FILLER_22_160
*813 FILLER_22_172
*814 FILLER_22_184
*815 FILLER_22_197
*816 FILLER_22_209
*817 FILLER_22_221
*818 FILLER_22_233
*819 FILLER_22_24
*820 FILLER_22_245
*821 FILLER_22_251
*822 FILLER_22_253
*823 FILLER_22_265
*824 FILLER_22_277
*825 FILLER_22_289
*826 FILLER_22_29
*827 FILLER_22_297
*828 FILLER_22_3
*829 FILLER_22_41
*830 FILLER_22_53
*831 FILLER_22_68
*832 FILLER_22_80
*833 FILLER_22_88
*834 FILLER_23_108
*835 FILLER_23_134
*836 FILLER_23_141
*837 FILLER_23_15
*838 FILLER_23_153
*839 FILLER_23_165
*840 FILLER_23_169
*841 FILLER_23_181
*842 FILLER_23_193
*843 FILLER_23_205
*844 FILLER_23_217
*845 FILLER_23_223
*846 FILLER_23_225
*847 FILLER_23_237
*848 FILLER_23_249
*849 FILLER_23_261
*850 FILLER_23_27
*851 FILLER_23_273
*852 FILLER_23_279
*853 FILLER_23_281
*854 FILLER_23_293
*855 FILLER_23_3
*856 FILLER_23_35
*857 FILLER_23_41
*858 FILLER_23_53
*859 FILLER_23_66
*860 FILLER_23_80
*861 FILLER_23_94
*862 FILLER_24_105
*863 FILLER_24_113
*864 FILLER_24_121
*865 FILLER_24_129
*866 FILLER_24_136
*867 FILLER_24_150
*868 FILLER_24_157
*869 FILLER_24_169
*870 FILLER_24_181
*871 FILLER_24_193
*872 FILLER_24_197
*873 FILLER_24_209
*874 FILLER_24_221
*875 FILLER_24_233
*876 FILLER_24_24
*877 FILLER_24_245
*878 FILLER_24_251
*879 FILLER_24_253
*880 FILLER_24_265
*881 FILLER_24_277
*882 FILLER_24_289
*883 FILLER_24_29
*884 FILLER_24_297
*885 FILLER_24_3
*886 FILLER_24_41
*887 FILLER_24_53
*888 FILLER_24_59
*889 FILLER_24_72
*890 FILLER_24_85
*891 FILLER_24_93
*892 FILLER_25_110
*893 FILLER_25_120
*894 FILLER_25_128
*895 FILLER_25_135
*896 FILLER_25_147
*897 FILLER_25_156
*898 FILLER_25_169
*899 FILLER_25_181
*900 FILLER_25_193
*901 FILLER_25_205
*902 FILLER_25_217
*903 FILLER_25_223
*904 FILLER_25_225
*905 FILLER_25_237
*906 FILLER_25_249
*907 FILLER_25_26
*908 FILLER_25_261
*909 FILLER_25_273
*910 FILLER_25_279
*911 FILLER_25_281
*912 FILLER_25_293
*913 FILLER_25_3
*914 FILLER_25_38
*915 FILLER_25_50
*916 FILLER_25_57
*917 FILLER_25_61
*918 FILLER_25_66
*919 FILLER_25_80
*920 FILLER_25_91
*921 FILLER_25_98
*922 FILLER_26_101
*923 FILLER_26_109
*924 FILLER_26_119
*925 FILLER_26_127
*926 FILLER_26_135
*927 FILLER_26_139
*928 FILLER_26_149
*929 FILLER_26_155
*930 FILLER_26_166
*931 FILLER_26_178
*932 FILLER_26_190
*933 FILLER_26_197
*934 FILLER_26_209
*935 FILLER_26_221
*936 FILLER_26_233
*937 FILLER_26_24
*938 FILLER_26_245
*939 FILLER_26_251
*940 FILLER_26_253
*941 FILLER_26_265
*942 FILLER_26_277
*943 FILLER_26_289
*944 FILLER_26_29
*945 FILLER_26_297
*946 FILLER_26_3
*947 FILLER_26_41
*948 FILLER_26_52
*949 FILLER_26_56
*950 FILLER_26_60
*951 FILLER_26_72
*952 FILLER_26_85
*953 FILLER_26_91
*954 FILLER_27_108
*955 FILLER_27_122
*956 FILLER_27_128
*957 FILLER_27_132
*958 FILLER_27_139
*959 FILLER_27_148
*960 FILLER_27_160
*961 FILLER_27_169
*962 FILLER_27_181
*963 FILLER_27_193
*964 FILLER_27_205
*965 FILLER_27_217
*966 FILLER_27_223
*967 FILLER_27_225
*968 FILLER_27_237
*969 FILLER_27_249
*970 FILLER_27_26
*971 FILLER_27_261
*972 FILLER_27_273
*973 FILLER_27_279
*974 FILLER_27_281
*975 FILLER_27_293
*976 FILLER_27_50
*977 FILLER_27_57
*978 FILLER_27_63
*979 FILLER_27_73
*980 FILLER_27_81
*981 FILLER_27_88
*982 FILLER_27_97
*983 FILLER_28_100
*984 FILLER_28_109
*985 FILLER_28_115
*986 FILLER_28_119
*987 FILLER_28_133
*988 FILLER_28_139
*989 FILLER_28_141
*990 FILLER_28_153
*991 FILLER_28_165
*992 FILLER_28_177
*993 FILLER_28_189
*994 FILLER_28_195
*995 FILLER_28_197
*996 FILLER_28_209
*997 FILLER_28_221
*998 FILLER_28_233
*999 FILLER_28_24
*1000 FILLER_28_245
*1001 FILLER_28_251
*1002 FILLER_28_253
*1003 FILLER_28_265
*1004 FILLER_28_277
*1005 FILLER_28_289
*1006 FILLER_28_29
*1007 FILLER_28_297
*1008 FILLER_28_3
*1009 FILLER_28_41
*1010 FILLER_28_47
*1011 FILLER_28_52
*1012 FILLER_28_65
*1013 FILLER_28_69
*1014 FILLER_28_80
*1015 FILLER_28_88
*1016 FILLER_29_102
*1017 FILLER_29_110
*1018 FILLER_29_113
*1019 FILLER_29_128
*1020 FILLER_29_140
*1021 FILLER_29_152
*1022 FILLER_29_164
*1023 FILLER_29_169
*1024 FILLER_29_181
*1025 FILLER_29_193
*1026 FILLER_29_205
*1027 FILLER_29_217
*1028 FILLER_29_223
*1029 FILLER_29_225
*1030 FILLER_29_237
*1031 FILLER_29_249
*1032 FILLER_29_261
*1033 FILLER_29_273
*1034 FILLER_29_279
*1035 FILLER_29_281
*1036 FILLER_29_293
*1037 FILLER_29_3
*1038 FILLER_29_30
*1039 FILLER_29_42
*1040 FILLER_29_48
*1041 FILLER_29_57
*1042 FILLER_29_69
*1043 FILLER_29_79
*1044 FILLER_29_8
*1045 FILLER_29_91
*1046 FILLER_2_101
*1047 FILLER_2_113
*1048 FILLER_2_124
*1049 FILLER_2_136
*1050 FILLER_2_141
*1051 FILLER_2_149
*1052 FILLER_2_161
*1053 FILLER_2_173
*1054 FILLER_2_185
*1055 FILLER_2_193
*1056 FILLER_2_197
*1057 FILLER_2_209
*1058 FILLER_2_221
*1059 FILLER_2_233
*1060 FILLER_2_24
*1061 FILLER_2_245
*1062 FILLER_2_251
*1063 FILLER_2_253
*1064 FILLER_2_265
*1065 FILLER_2_277
*1066 FILLER_2_289
*1067 FILLER_2_297
*1068 FILLER_2_3
*1069 FILLER_2_49
*1070 FILLER_2_58
*1071 FILLER_2_66
*1072 FILLER_2_72
*1073 FILLER_2_76
*1074 FILLER_2_80
*1075 FILLER_2_85
*1076 FILLER_2_94
*1077 FILLER_30_100
*1078 FILLER_30_111
*1079 FILLER_30_121
*1080 FILLER_30_128
*1081 FILLER_30_141
*1082 FILLER_30_153
*1083 FILLER_30_165
*1084 FILLER_30_177
*1085 FILLER_30_189
*1086 FILLER_30_195
*1087 FILLER_30_197
*1088 FILLER_30_209
*1089 FILLER_30_221
*1090 FILLER_30_233
*1091 FILLER_30_24
*1092 FILLER_30_245
*1093 FILLER_30_251
*1094 FILLER_30_253
*1095 FILLER_30_265
*1096 FILLER_30_277
*1097 FILLER_30_289
*1098 FILLER_30_29
*1099 FILLER_30_297
*1100 FILLER_30_3
*1101 FILLER_30_41
*1102 FILLER_30_53
*1103 FILLER_30_65
*1104 FILLER_30_80
*1105 FILLER_30_85
*1106 FILLER_30_89
*1107 FILLER_31_107
*1108 FILLER_31_111
*1109 FILLER_31_113
*1110 FILLER_31_125
*1111 FILLER_31_129
*1112 FILLER_31_139
*1113 FILLER_31_15
*1114 FILLER_31_151
*1115 FILLER_31_163
*1116 FILLER_31_167
*1117 FILLER_31_169
*1118 FILLER_31_181
*1119 FILLER_31_193
*1120 FILLER_31_205
*1121 FILLER_31_217
*1122 FILLER_31_223
*1123 FILLER_31_225
*1124 FILLER_31_237
*1125 FILLER_31_249
*1126 FILLER_31_261
*1127 FILLER_31_27
*1128 FILLER_31_273
*1129 FILLER_31_279
*1130 FILLER_31_281
*1131 FILLER_31_293
*1132 FILLER_31_3
*1133 FILLER_31_39
*1134 FILLER_31_51
*1135 FILLER_31_55
*1136 FILLER_31_57
*1137 FILLER_31_65
*1138 FILLER_31_72
*1139 FILLER_31_83
*1140 FILLER_31_95
*1141 FILLER_32_102
*1142 FILLER_32_106
*1143 FILLER_32_117
*1144 FILLER_32_127
*1145 FILLER_32_139
*1146 FILLER_32_141
*1147 FILLER_32_153
*1148 FILLER_32_165
*1149 FILLER_32_177
*1150 FILLER_32_189
*1151 FILLER_32_195
*1152 FILLER_32_197
*1153 FILLER_32_209
*1154 FILLER_32_221
*1155 FILLER_32_233
*1156 FILLER_32_24
*1157 FILLER_32_245
*1158 FILLER_32_251
*1159 FILLER_32_253
*1160 FILLER_32_265
*1161 FILLER_32_277
*1162 FILLER_32_289
*1163 FILLER_32_29
*1164 FILLER_32_297
*1165 FILLER_32_41
*1166 FILLER_32_53
*1167 FILLER_32_65
*1168 FILLER_32_77
*1169 FILLER_32_83
*1170 FILLER_32_90
*1171 FILLER_33_106
*1172 FILLER_33_122
*1173 FILLER_33_141
*1174 FILLER_33_15
*1175 FILLER_33_153
*1176 FILLER_33_165
*1177 FILLER_33_169
*1178 FILLER_33_181
*1179 FILLER_33_193
*1180 FILLER_33_205
*1181 FILLER_33_217
*1182 FILLER_33_223
*1183 FILLER_33_225
*1184 FILLER_33_237
*1185 FILLER_33_249
*1186 FILLER_33_261
*1187 FILLER_33_27
*1188 FILLER_33_273
*1189 FILLER_33_279
*1190 FILLER_33_281
*1191 FILLER_33_293
*1192 FILLER_33_3
*1193 FILLER_33_39
*1194 FILLER_33_47
*1195 FILLER_33_51
*1196 FILLER_33_55
*1197 FILLER_33_57
*1198 FILLER_33_64
*1199 FILLER_33_76
*1200 FILLER_33_84
*1201 FILLER_33_94
*1202 FILLER_34_105
*1203 FILLER_34_113
*1204 FILLER_34_122
*1205 FILLER_34_134
*1206 FILLER_34_141
*1207 FILLER_34_153
*1208 FILLER_34_165
*1209 FILLER_34_177
*1210 FILLER_34_189
*1211 FILLER_34_195
*1212 FILLER_34_197
*1213 FILLER_34_209
*1214 FILLER_34_221
*1215 FILLER_34_233
*1216 FILLER_34_24
*1217 FILLER_34_245
*1218 FILLER_34_251
*1219 FILLER_34_253
*1220 FILLER_34_265
*1221 FILLER_34_277
*1222 FILLER_34_289
*1223 FILLER_34_29
*1224 FILLER_34_297
*1225 FILLER_34_3
*1226 FILLER_34_41
*1227 FILLER_34_50
*1228 FILLER_34_58
*1229 FILLER_34_62
*1230 FILLER_34_76
*1231 FILLER_34_85
*1232 FILLER_34_93
*1233 FILLER_35_102
*1234 FILLER_35_110
*1235 FILLER_35_113
*1236 FILLER_35_125
*1237 FILLER_35_137
*1238 FILLER_35_149
*1239 FILLER_35_161
*1240 FILLER_35_167
*1241 FILLER_35_169
*1242 FILLER_35_181
*1243 FILLER_35_193
*1244 FILLER_35_205
*1245 FILLER_35_217
*1246 FILLER_35_223
*1247 FILLER_35_225
*1248 FILLER_35_237
*1249 FILLER_35_249
*1250 FILLER_35_261
*1251 FILLER_35_273
*1252 FILLER_35_279
*1253 FILLER_35_281
*1254 FILLER_35_293
*1255 FILLER_35_3
*1256 FILLER_35_32
*1257 FILLER_35_44
*1258 FILLER_35_57
*1259 FILLER_35_7
*1260 FILLER_35_75
*1261 FILLER_35_86
*1262 FILLER_35_95
*1263 FILLER_36_109
*1264 FILLER_36_121
*1265 FILLER_36_133
*1266 FILLER_36_139
*1267 FILLER_36_141
*1268 FILLER_36_153
*1269 FILLER_36_165
*1270 FILLER_36_177
*1271 FILLER_36_189
*1272 FILLER_36_195
*1273 FILLER_36_197
*1274 FILLER_36_209
*1275 FILLER_36_221
*1276 FILLER_36_233
*1277 FILLER_36_24
*1278 FILLER_36_245
*1279 FILLER_36_251
*1280 FILLER_36_253
*1281 FILLER_36_265
*1282 FILLER_36_277
*1283 FILLER_36_289
*1284 FILLER_36_29
*1285 FILLER_36_297
*1286 FILLER_36_3
*1287 FILLER_36_38
*1288 FILLER_36_50
*1289 FILLER_36_56
*1290 FILLER_36_64
*1291 FILLER_36_72
*1292 FILLER_36_80
*1293 FILLER_36_85
*1294 FILLER_36_89
*1295 FILLER_36_97
*1296 FILLER_37_103
*1297 FILLER_37_111
*1298 FILLER_37_113
*1299 FILLER_37_125
*1300 FILLER_37_137
*1301 FILLER_37_149
*1302 FILLER_37_15
*1303 FILLER_37_161
*1304 FILLER_37_167
*1305 FILLER_37_169
*1306 FILLER_37_181
*1307 FILLER_37_193
*1308 FILLER_37_205
*1309 FILLER_37_217
*1310 FILLER_37_223
*1311 FILLER_37_225
*1312 FILLER_37_237
*1313 FILLER_37_249
*1314 FILLER_37_261
*1315 FILLER_37_27
*1316 FILLER_37_273
*1317 FILLER_37_279
*1318 FILLER_37_281
*1319 FILLER_37_293
*1320 FILLER_37_3
*1321 FILLER_37_35
*1322 FILLER_37_39
*1323 FILLER_37_52
*1324 FILLER_37_64
*1325 FILLER_37_70
*1326 FILLER_37_79
*1327 FILLER_37_91
*1328 FILLER_38_109
*1329 FILLER_38_121
*1330 FILLER_38_133
*1331 FILLER_38_139
*1332 FILLER_38_141
*1333 FILLER_38_15
*1334 FILLER_38_153
*1335 FILLER_38_165
*1336 FILLER_38_177
*1337 FILLER_38_189
*1338 FILLER_38_195
*1339 FILLER_38_197
*1340 FILLER_38_209
*1341 FILLER_38_22
*1342 FILLER_38_221
*1343 FILLER_38_233
*1344 FILLER_38_245
*1345 FILLER_38_251
*1346 FILLER_38_253
*1347 FILLER_38_265
*1348 FILLER_38_277
*1349 FILLER_38_289
*1350 FILLER_38_29
*1351 FILLER_38_297
*1352 FILLER_38_3
*1353 FILLER_38_41
*1354 FILLER_38_53
*1355 FILLER_38_65
*1356 FILLER_38_75
*1357 FILLER_38_83
*1358 FILLER_38_85
*1359 FILLER_38_97
*1360 FILLER_39_105
*1361 FILLER_39_111
*1362 FILLER_39_113
*1363 FILLER_39_125
*1364 FILLER_39_137
*1365 FILLER_39_149
*1366 FILLER_39_15
*1367 FILLER_39_161
*1368 FILLER_39_167
*1369 FILLER_39_169
*1370 FILLER_39_181
*1371 FILLER_39_193
*1372 FILLER_39_205
*1373 FILLER_39_217
*1374 FILLER_39_22
*1375 FILLER_39_223
*1376 FILLER_39_225
*1377 FILLER_39_237
*1378 FILLER_39_249
*1379 FILLER_39_261
*1380 FILLER_39_273
*1381 FILLER_39_279
*1382 FILLER_39_281
*1383 FILLER_39_293
*1384 FILLER_39_3
*1385 FILLER_39_34
*1386 FILLER_39_45
*1387 FILLER_39_53
*1388 FILLER_39_57
*1389 FILLER_39_69
*1390 FILLER_39_81
*1391 FILLER_39_93
*1392 FILLER_3_102
*1393 FILLER_3_106
*1394 FILLER_3_116
*1395 FILLER_3_128
*1396 FILLER_3_13
*1397 FILLER_3_138
*1398 FILLER_3_150
*1399 FILLER_3_162
*1400 FILLER_3_169
*1401 FILLER_3_181
*1402 FILLER_3_193
*1403 FILLER_3_205
*1404 FILLER_3_21
*1405 FILLER_3_217
*1406 FILLER_3_223
*1407 FILLER_3_225
*1408 FILLER_3_237
*1409 FILLER_3_249
*1410 FILLER_3_261
*1411 FILLER_3_273
*1412 FILLER_3_279
*1413 FILLER_3_281
*1414 FILLER_3_293
*1415 FILLER_3_42
*1416 FILLER_3_48
*1417 FILLER_3_52
*1418 FILLER_3_57
*1419 FILLER_3_61
*1420 FILLER_3_68
*1421 FILLER_3_75
*1422 FILLER_3_86
*1423 FILLER_3_96
*1424 FILLER_40_109
*1425 FILLER_40_121
*1426 FILLER_40_133
*1427 FILLER_40_139
*1428 FILLER_40_141
*1429 FILLER_40_153
*1430 FILLER_40_165
*1431 FILLER_40_177
*1432 FILLER_40_189
*1433 FILLER_40_195
*1434 FILLER_40_197
*1435 FILLER_40_209
*1436 FILLER_40_221
*1437 FILLER_40_233
*1438 FILLER_40_24
*1439 FILLER_40_245
*1440 FILLER_40_251
*1441 FILLER_40_253
*1442 FILLER_40_265
*1443 FILLER_40_277
*1444 FILLER_40_289
*1445 FILLER_40_29
*1446 FILLER_40_297
*1447 FILLER_40_3
*1448 FILLER_40_41
*1449 FILLER_40_53
*1450 FILLER_40_65
*1451 FILLER_40_77
*1452 FILLER_40_83
*1453 FILLER_40_85
*1454 FILLER_40_97
*1455 FILLER_41_105
*1456 FILLER_41_111
*1457 FILLER_41_113
*1458 FILLER_41_125
*1459 FILLER_41_137
*1460 FILLER_41_149
*1461 FILLER_41_15
*1462 FILLER_41_161
*1463 FILLER_41_167
*1464 FILLER_41_169
*1465 FILLER_41_181
*1466 FILLER_41_193
*1467 FILLER_41_205
*1468 FILLER_41_217
*1469 FILLER_41_223
*1470 FILLER_41_225
*1471 FILLER_41_23
*1472 FILLER_41_237
*1473 FILLER_41_249
*1474 FILLER_41_261
*1475 FILLER_41_273
*1476 FILLER_41_279
*1477 FILLER_41_281
*1478 FILLER_41_293
*1479 FILLER_41_3
*1480 FILLER_41_31
*1481 FILLER_41_39
*1482 FILLER_41_51
*1483 FILLER_41_55
*1484 FILLER_41_57
*1485 FILLER_41_69
*1486 FILLER_41_81
*1487 FILLER_41_93
*1488 FILLER_42_109
*1489 FILLER_42_121
*1490 FILLER_42_133
*1491 FILLER_42_139
*1492 FILLER_42_141
*1493 FILLER_42_15
*1494 FILLER_42_153
*1495 FILLER_42_165
*1496 FILLER_42_177
*1497 FILLER_42_189
*1498 FILLER_42_195
*1499 FILLER_42_197
*1500 FILLER_42_209
*1501 FILLER_42_221
*1502 FILLER_42_233
*1503 FILLER_42_245
*1504 FILLER_42_251
*1505 FILLER_42_253
*1506 FILLER_42_265
*1507 FILLER_42_27
*1508 FILLER_42_277
*1509 FILLER_42_289
*1510 FILLER_42_29
*1511 FILLER_42_297
*1512 FILLER_42_3
*1513 FILLER_42_37
*1514 FILLER_42_47
*1515 FILLER_42_58
*1516 FILLER_42_70
*1517 FILLER_42_82
*1518 FILLER_42_85
*1519 FILLER_42_97
*1520 FILLER_43_105
*1521 FILLER_43_111
*1522 FILLER_43_113
*1523 FILLER_43_125
*1524 FILLER_43_137
*1525 FILLER_43_149
*1526 FILLER_43_16
*1527 FILLER_43_161
*1528 FILLER_43_167
*1529 FILLER_43_169
*1530 FILLER_43_181
*1531 FILLER_43_193
*1532 FILLER_43_205
*1533 FILLER_43_217
*1534 FILLER_43_223
*1535 FILLER_43_225
*1536 FILLER_43_237
*1537 FILLER_43_249
*1538 FILLER_43_261
*1539 FILLER_43_273
*1540 FILLER_43_279
*1541 FILLER_43_28
*1542 FILLER_43_281
*1543 FILLER_43_293
*1544 FILLER_43_3
*1545 FILLER_43_40
*1546 FILLER_43_52
*1547 FILLER_43_57
*1548 FILLER_43_69
*1549 FILLER_43_81
*1550 FILLER_43_9
*1551 FILLER_43_93
*1552 FILLER_44_109
*1553 FILLER_44_121
*1554 FILLER_44_133
*1555 FILLER_44_139
*1556 FILLER_44_141
*1557 FILLER_44_153
*1558 FILLER_44_165
*1559 FILLER_44_17
*1560 FILLER_44_177
*1561 FILLER_44_189
*1562 FILLER_44_195
*1563 FILLER_44_197
*1564 FILLER_44_209
*1565 FILLER_44_221
*1566 FILLER_44_233
*1567 FILLER_44_245
*1568 FILLER_44_25
*1569 FILLER_44_251
*1570 FILLER_44_253
*1571 FILLER_44_265
*1572 FILLER_44_277
*1573 FILLER_44_289
*1574 FILLER_44_29
*1575 FILLER_44_297
*1576 FILLER_44_3
*1577 FILLER_44_41
*1578 FILLER_44_53
*1579 FILLER_44_65
*1580 FILLER_44_77
*1581 FILLER_44_83
*1582 FILLER_44_85
*1583 FILLER_44_97
*1584 FILLER_45_105
*1585 FILLER_45_111
*1586 FILLER_45_113
*1587 FILLER_45_125
*1588 FILLER_45_137
*1589 FILLER_45_14
*1590 FILLER_45_149
*1591 FILLER_45_161
*1592 FILLER_45_167
*1593 FILLER_45_169
*1594 FILLER_45_181
*1595 FILLER_45_193
*1596 FILLER_45_205
*1597 FILLER_45_217
*1598 FILLER_45_223
*1599 FILLER_45_225
*1600 FILLER_45_237
*1601 FILLER_45_249
*1602 FILLER_45_26
*1603 FILLER_45_261
*1604 FILLER_45_273
*1605 FILLER_45_279
*1606 FILLER_45_281
*1607 FILLER_45_293
*1608 FILLER_45_3
*1609 FILLER_45_38
*1610 FILLER_45_50
*1611 FILLER_45_57
*1612 FILLER_45_69
*1613 FILLER_45_81
*1614 FILLER_45_9
*1615 FILLER_45_93
*1616 FILLER_46_109
*1617 FILLER_46_121
*1618 FILLER_46_133
*1619 FILLER_46_139
*1620 FILLER_46_141
*1621 FILLER_46_153
*1622 FILLER_46_16
*1623 FILLER_46_165
*1624 FILLER_46_177
*1625 FILLER_46_189
*1626 FILLER_46_195
*1627 FILLER_46_197
*1628 FILLER_46_209
*1629 FILLER_46_221
*1630 FILLER_46_233
*1631 FILLER_46_245
*1632 FILLER_46_251
*1633 FILLER_46_253
*1634 FILLER_46_265
*1635 FILLER_46_277
*1636 FILLER_46_289
*1637 FILLER_46_29
*1638 FILLER_46_297
*1639 FILLER_46_3
*1640 FILLER_46_41
*1641 FILLER_46_53
*1642 FILLER_46_65
*1643 FILLER_46_77
*1644 FILLER_46_8
*1645 FILLER_46_83
*1646 FILLER_46_85
*1647 FILLER_46_97
*1648 FILLER_47_105
*1649 FILLER_47_111
*1650 FILLER_47_113
*1651 FILLER_47_125
*1652 FILLER_47_137
*1653 FILLER_47_149
*1654 FILLER_47_15
*1655 FILLER_47_161
*1656 FILLER_47_167
*1657 FILLER_47_169
*1658 FILLER_47_181
*1659 FILLER_47_193
*1660 FILLER_47_205
*1661 FILLER_47_217
*1662 FILLER_47_223
*1663 FILLER_47_225
*1664 FILLER_47_23
*1665 FILLER_47_237
*1666 FILLER_47_249
*1667 FILLER_47_261
*1668 FILLER_47_273
*1669 FILLER_47_279
*1670 FILLER_47_281
*1671 FILLER_47_293
*1672 FILLER_47_3
*1673 FILLER_47_35
*1674 FILLER_47_47
*1675 FILLER_47_55
*1676 FILLER_47_57
*1677 FILLER_47_69
*1678 FILLER_47_81
*1679 FILLER_47_93
*1680 FILLER_48_10
*1681 FILLER_48_109
*1682 FILLER_48_121
*1683 FILLER_48_133
*1684 FILLER_48_139
*1685 FILLER_48_141
*1686 FILLER_48_153
*1687 FILLER_48_165
*1688 FILLER_48_177
*1689 FILLER_48_189
*1690 FILLER_48_195
*1691 FILLER_48_197
*1692 FILLER_48_209
*1693 FILLER_48_22
*1694 FILLER_48_221
*1695 FILLER_48_233
*1696 FILLER_48_245
*1697 FILLER_48_251
*1698 FILLER_48_253
*1699 FILLER_48_265
*1700 FILLER_48_277
*1701 FILLER_48_289
*1702 FILLER_48_29
*1703 FILLER_48_297
*1704 FILLER_48_3