*SPEF "ieee 1481-1999"
*DESIGN "gatecat_fpga_top"
*DATE "11:11:11 Fri 11 11, 1111"
*VENDOR "OpenRCX"
*PROGRAM "Parallel Extraction"
*VERSION "1.0"
*DESIGN_FLOW "NAME_SCOPE LOCAL" "PIN_CAP NONE"
*DIVIDER /
*DELIMITER :
*BUS_DELIMITER []
*T_UNIT 1 NS
*C_UNIT 1 PF
*R_UNIT 1 OHM
*L_UNIT 1 HENRY

*NAME_MAP
*1 io_in[0]
*2 io_in[1]
*3 io_in[2]
*4 io_in[3]
*5 io_in[4]
*6 io_in[5]
*7 io_in[6]
*8 io_in[7]
*9 io_out[0]
*10 io_out[1]
*11 io_out[2]
*12 io_out[3]
*13 io_out[4]
*14 io_out[5]
*15 io_out[6]
*16 io_out[7]
*19 _00_
*20 _01_
*21 _02_
*22 _03_
*23 _04_
*24 _05_
*25 _06_
*26 _07_
*27 _08_
*28 _09_
*29 _10_
*30 _11_
*31 _12_
*32 _13_
*33 _14_
*34 _15_
*35 _16_
*36 _17_
*37 _18_
*38 _19_
*39 _20_
*40 _21_
*41 _22_
*42 _23_
*43 _24_
*44 _25_
*45 _26_
*46 _27_
*47 _28_
*48 _29_
*49 _30_
*50 _31_
*51 _32_
*52 cfg_datain
*53 cfg_frameinc
*54 cfg_framestrb
*55 clknet_0_io_in[0]
*56 clknet_2_0__leaf_io_in[0]
*57 clknet_2_1__leaf_io_in[0]
*58 clknet_2_2__leaf_io_in[0]
*59 clknet_2_3__leaf_io_in[0]
*60 frame_ctr\[0\]
*61 frame_ctr\[1\]
*62 frame_ctr\[2\]
*63 frame_ctr\[3\]
*64 gated_strobe
*65 net1
*66 net10
*67 net100
*68 net101
*69 net102
*70 net103
*71 net104
*72 net105
*73 net106
*74 net107
*75 net108
*76 net109
*77 net11
*78 net110
*79 net111
*80 net112
*81 net113
*82 net114
*83 net115
*84 net116
*85 net117
*86 net118
*87 net119
*88 net12
*89 net120
*90 net121
*91 net122
*92 net123
*93 net124
*94 net125
*95 net126
*96 net127
*97 net128
*98 net129
*99 net13
*100 net130
*101 net131
*102 net132
*103 net133
*104 net134
*105 net135
*106 net136
*107 net137
*108 net138
*109 net139
*110 net14
*111 net140
*112 net141
*113 net142
*114 net143
*115 net144
*116 net145
*117 net146
*118 net147
*119 net148
*120 net149
*121 net15
*122 net150
*123 net151
*124 net152
*125 net153
*126 net154
*127 net155
*128 net156
*129 net157
*130 net158
*131 net159
*132 net16
*133 net160
*134 net161
*135 net162
*136 net163
*137 net164
*138 net165
*139 net166
*140 net167
*141 net168
*142 net169
*143 net17
*144 net170
*145 net171
*146 net172
*147 net173
*148 net174
*149 net175
*150 net176
*151 net177
*152 net178
*153 net179
*154 net18
*155 net180
*156 net181
*157 net182
*158 net183
*159 net184
*160 net185
*161 net186
*162 net187
*163 net188
*164 net189
*165 net19
*166 net190
*167 net191
*168 net192
*169 net193
*170 net194
*171 net195
*172 net196
*173 net197
*174 net198
*175 net199
*176 net2
*177 net20
*178 net200
*179 net201
*180 net202
*181 net203
*182 net204
*183 net205
*184 net206
*185 net207
*186 net208
*187 net209
*188 net21
*189 net210
*190 net211
*191 net212
*192 net22
*193 net23
*194 net24
*195 net25
*196 net26
*197 net27
*198 net28
*199 net29
*200 net3
*201 net30
*202 net31
*203 net32
*204 net33
*205 net34
*206 net35
*207 net36
*208 net37
*209 net38
*210 net39
*211 net4
*212 net40
*213 net41
*214 net42
*215 net43
*216 net44
*217 net45
*218 net46
*219 net47
*220 net48
*221 net49
*222 net5
*223 net50
*224 net51
*225 net52
*226 net53
*227 net54
*228 net55
*229 net56
*230 net57
*231 net58
*232 net59
*233 net6
*234 net60
*235 net61
*236 net62
*237 net63
*238 net64
*239 net65
*240 net66
*241 net67
*242 net68
*243 net69
*244 net7
*245 net70
*246 net71
*247 net72
*248 net73
*249 net74
*250 net75
*251 net76
*252 net77
*253 net78
*254 net79
*255 net8
*256 net80
*257 net81
*258 net82
*259 net83
*260 net84
*261 net85
*262 net86
*263 net87
*264 net88
*265 net89
*266 net9
*267 net90
*268 net91
*269 net92
*270 net93
*271 net94
*272 net95
*273 net96
*274 net97
*275 net98
*276 net99
*277 y_c\[0\]\.x_c\[0\]\.lc_i\.B
*278 y_c\[0\]\.x_c\[0\]\.lc_i\.L
*279 y_c\[0\]\.x_c\[0\]\.lc_i\.Q
*280 y_c\[0\]\.x_c\[0\]\.lc_i\.R
*281 y_c\[0\]\.x_c\[0\]\.lc_i\.T
*282 y_c\[0\]\.x_c\[0\]\.lc_i\.cfg\[0\]
*283 y_c\[0\]\.x_c\[0\]\.lc_i\.cfg\[1\]
*284 y_c\[0\]\.x_c\[0\]\.lc_i\.cfg\[2\]
*285 y_c\[0\]\.x_c\[0\]\.lc_i\.cfg\[3\]
*286 y_c\[0\]\.x_c\[0\]\.lc_i\.cfg\[4\]
*287 y_c\[0\]\.x_c\[0\]\.lc_i\.cfg\[5\]
*288 y_c\[0\]\.x_c\[0\]\.lc_i\.cfg\[6\]
*289 y_c\[0\]\.x_c\[0\]\.lc_i\.cfg\[7\]
*290 y_c\[0\]\.x_c\[0\]\.lc_i\.cfg_data\[0\]
*291 y_c\[0\]\.x_c\[0\]\.lc_i\.cfg_data\[1\]
*292 y_c\[0\]\.x_c\[0\]\.lc_i\.cfg_data\[2\]
*293 y_c\[0\]\.x_c\[0\]\.lc_i\.cfg_data\[3\]
*294 y_c\[0\]\.x_c\[0\]\.lc_i\.cfg_mode
*295 y_c\[0\]\.x_c\[0\]\.lc_i\.cfg_strb\[0\]
*296 y_c\[0\]\.x_c\[0\]\.lc_i\.cfg_strb\[1\]
*297 y_c\[0\]\.x_c\[0\]\.lc_i\.dff\.dffo_n
*298 y_c\[0\]\.x_c\[0\]\.lc_i\.i0
*299 y_c\[0\]\.x_c\[0\]\.lc_i\.i0a
*300 y_c\[0\]\.x_c\[0\]\.lc_i\.i0b
*301 y_c\[0\]\.x_c\[0\]\.lc_i\.i1
*302 y_c\[0\]\.x_c\[0\]\.lc_i\.i1a
*303 y_c\[0\]\.x_c\[0\]\.lc_i\.i1b
*304 y_c\[0\]\.x_c\[0\]\.lc_i\.muxo_n
*305 y_c\[0\]\.x_c\[0\]\.lc_i\.s0
*306 y_c\[0\]\.x_c\[0\]\.lc_i\.s0a
*307 y_c\[0\]\.x_c\[0\]\.lc_i\.s0b
*308 y_c\[0\]\.x_c\[0\]\.lc_i\.s0s
*309 y_c\[0\]\.x_c\[1\]\.lc_i\.B
*310 y_c\[0\]\.x_c\[1\]\.lc_i\.R
*311 y_c\[0\]\.x_c\[1\]\.lc_i\.cfg\[0\]
*312 y_c\[0\]\.x_c\[1\]\.lc_i\.cfg\[1\]
*313 y_c\[0\]\.x_c\[1\]\.lc_i\.cfg\[2\]
*314 y_c\[0\]\.x_c\[1\]\.lc_i\.cfg\[3\]
*315 y_c\[0\]\.x_c\[1\]\.lc_i\.cfg\[4\]
*316 y_c\[0\]\.x_c\[1\]\.lc_i\.cfg\[5\]
*317 y_c\[0\]\.x_c\[1\]\.lc_i\.cfg\[6\]
*318 y_c\[0\]\.x_c\[1\]\.lc_i\.cfg\[7\]
*319 y_c\[0\]\.x_c\[1\]\.lc_i\.cfg_data\[0\]
*320 y_c\[0\]\.x_c\[1\]\.lc_i\.cfg_data\[1\]
*321 y_c\[0\]\.x_c\[1\]\.lc_i\.cfg_data\[2\]
*322 y_c\[0\]\.x_c\[1\]\.lc_i\.cfg_data\[3\]
*323 y_c\[0\]\.x_c\[1\]\.lc_i\.dff\.dffo_n
*324 y_c\[0\]\.x_c\[1\]\.lc_i\.i0
*325 y_c\[0\]\.x_c\[1\]\.lc_i\.i0a
*326 y_c\[0\]\.x_c\[1\]\.lc_i\.i0b
*327 y_c\[0\]\.x_c\[1\]\.lc_i\.i1
*328 y_c\[0\]\.x_c\[1\]\.lc_i\.i1a
*329 y_c\[0\]\.x_c\[1\]\.lc_i\.i1b
*330 y_c\[0\]\.x_c\[1\]\.lc_i\.muxo_n
*331 y_c\[0\]\.x_c\[1\]\.lc_i\.s0
*332 y_c\[0\]\.x_c\[1\]\.lc_i\.s0a
*333 y_c\[0\]\.x_c\[1\]\.lc_i\.s0b
*334 y_c\[0\]\.x_c\[1\]\.lc_i\.s0s
*335 y_c\[0\]\.x_c\[2\]\.lc_i\.B
*336 y_c\[0\]\.x_c\[2\]\.lc_i\.R
*337 y_c\[0\]\.x_c\[2\]\.lc_i\.T
*338 y_c\[0\]\.x_c\[2\]\.lc_i\.cfg\[0\]
*339 y_c\[0\]\.x_c\[2\]\.lc_i\.cfg\[1\]
*340 y_c\[0\]\.x_c\[2\]\.lc_i\.cfg\[2\]
*341 y_c\[0\]\.x_c\[2\]\.lc_i\.cfg\[3\]
*342 y_c\[0\]\.x_c\[2\]\.lc_i\.cfg\[4\]
*343 y_c\[0\]\.x_c\[2\]\.lc_i\.cfg\[5\]
*344 y_c\[0\]\.x_c\[2\]\.lc_i\.cfg\[6\]
*345 y_c\[0\]\.x_c\[2\]\.lc_i\.cfg\[7\]
*346 y_c\[0\]\.x_c\[2\]\.lc_i\.cfg_data\[0\]
*347 y_c\[0\]\.x_c\[2\]\.lc_i\.cfg_data\[1\]
*348 y_c\[0\]\.x_c\[2\]\.lc_i\.cfg_data\[2\]
*349 y_c\[0\]\.x_c\[2\]\.lc_i\.cfg_data\[3\]
*350 y_c\[0\]\.x_c\[2\]\.lc_i\.dff\.dffo_n
*351 y_c\[0\]\.x_c\[2\]\.lc_i\.i0
*352 y_c\[0\]\.x_c\[2\]\.lc_i\.i0a
*353 y_c\[0\]\.x_c\[2\]\.lc_i\.i0b
*354 y_c\[0\]\.x_c\[2\]\.lc_i\.i1
*355 y_c\[0\]\.x_c\[2\]\.lc_i\.i1a
*356 y_c\[0\]\.x_c\[2\]\.lc_i\.i1b
*357 y_c\[0\]\.x_c\[2\]\.lc_i\.muxo_n
*358 y_c\[0\]\.x_c\[2\]\.lc_i\.s0
*359 y_c\[0\]\.x_c\[2\]\.lc_i\.s0a
*360 y_c\[0\]\.x_c\[2\]\.lc_i\.s0b
*361 y_c\[0\]\.x_c\[2\]\.lc_i\.s0s
*362 y_c\[0\]\.x_c\[3\]\.lc_i\.B
*363 y_c\[0\]\.x_c\[3\]\.lc_i\.R
*364 y_c\[0\]\.x_c\[3\]\.lc_i\.T
*365 y_c\[0\]\.x_c\[3\]\.lc_i\.cfg\[0\]
*366 y_c\[0\]\.x_c\[3\]\.lc_i\.cfg\[1\]
*367 y_c\[0\]\.x_c\[3\]\.lc_i\.cfg\[2\]
*368 y_c\[0\]\.x_c\[3\]\.lc_i\.cfg\[3\]
*369 y_c\[0\]\.x_c\[3\]\.lc_i\.cfg\[4\]
*370 y_c\[0\]\.x_c\[3\]\.lc_i\.cfg\[5\]
*371 y_c\[0\]\.x_c\[3\]\.lc_i\.cfg\[6\]
*372 y_c\[0\]\.x_c\[3\]\.lc_i\.cfg\[7\]
*373 y_c\[0\]\.x_c\[3\]\.lc_i\.cfg_data\[0\]
*374 y_c\[0\]\.x_c\[3\]\.lc_i\.cfg_data\[1\]
*375 y_c\[0\]\.x_c\[3\]\.lc_i\.cfg_data\[2\]
*376 y_c\[0\]\.x_c\[3\]\.lc_i\.cfg_data\[3\]
*377 y_c\[0\]\.x_c\[3\]\.lc_i\.dff\.dffo_n
*378 y_c\[0\]\.x_c\[3\]\.lc_i\.i0
*379 y_c\[0\]\.x_c\[3\]\.lc_i\.i0a
*380 y_c\[0\]\.x_c\[3\]\.lc_i\.i0b
*381 y_c\[0\]\.x_c\[3\]\.lc_i\.i1
*382 y_c\[0\]\.x_c\[3\]\.lc_i\.i1a
*383 y_c\[0\]\.x_c\[3\]\.lc_i\.i1b
*384 y_c\[0\]\.x_c\[3\]\.lc_i\.muxo_n
*385 y_c\[0\]\.x_c\[3\]\.lc_i\.s0
*386 y_c\[0\]\.x_c\[3\]\.lc_i\.s0a
*387 y_c\[0\]\.x_c\[3\]\.lc_i\.s0b
*388 y_c\[0\]\.x_c\[3\]\.lc_i\.s0s
*389 y_c\[0\]\.x_c\[4\]\.lc_i\.B
*390 y_c\[0\]\.x_c\[4\]\.lc_i\.T
*391 y_c\[0\]\.x_c\[4\]\.lc_i\.cfg\[0\]
*392 y_c\[0\]\.x_c\[4\]\.lc_i\.cfg\[1\]
*393 y_c\[0\]\.x_c\[4\]\.lc_i\.cfg\[2\]
*394 y_c\[0\]\.x_c\[4\]\.lc_i\.cfg\[3\]
*395 y_c\[0\]\.x_c\[4\]\.lc_i\.cfg\[4\]
*396 y_c\[0\]\.x_c\[4\]\.lc_i\.cfg\[5\]
*397 y_c\[0\]\.x_c\[4\]\.lc_i\.cfg\[6\]
*398 y_c\[0\]\.x_c\[4\]\.lc_i\.cfg\[7\]
*399 y_c\[0\]\.x_c\[4\]\.lc_i\.cfg_data\[0\]
*400 y_c\[0\]\.x_c\[4\]\.lc_i\.cfg_data\[1\]
*401 y_c\[0\]\.x_c\[4\]\.lc_i\.cfg_data\[2\]
*402 y_c\[0\]\.x_c\[4\]\.lc_i\.cfg_data\[3\]
*403 y_c\[0\]\.x_c\[4\]\.lc_i\.dff\.dffo_n
*404 y_c\[0\]\.x_c\[4\]\.lc_i\.i0
*405 y_c\[0\]\.x_c\[4\]\.lc_i\.i0a
*406 y_c\[0\]\.x_c\[4\]\.lc_i\.i0b
*407 y_c\[0\]\.x_c\[4\]\.lc_i\.i1
*408 y_c\[0\]\.x_c\[4\]\.lc_i\.i1a
*409 y_c\[0\]\.x_c\[4\]\.lc_i\.i1b
*410 y_c\[0\]\.x_c\[4\]\.lc_i\.muxo_n
*411 y_c\[0\]\.x_c\[4\]\.lc_i\.s0
*412 y_c\[0\]\.x_c\[4\]\.lc_i\.s0a
*413 y_c\[0\]\.x_c\[4\]\.lc_i\.s0b
*414 y_c\[0\]\.x_c\[4\]\.lc_i\.s0s
*415 y_c\[1\]\.x_c\[0\]\.lc_i\.B
*416 y_c\[1\]\.x_c\[0\]\.lc_i\.cfg\[0\]
*417 y_c\[1\]\.x_c\[0\]\.lc_i\.cfg\[1\]
*418 y_c\[1\]\.x_c\[0\]\.lc_i\.cfg\[2\]
*419 y_c\[1\]\.x_c\[0\]\.lc_i\.cfg\[3\]
*420 y_c\[1\]\.x_c\[0\]\.lc_i\.cfg\[4\]
*421 y_c\[1\]\.x_c\[0\]\.lc_i\.cfg\[5\]
*422 y_c\[1\]\.x_c\[0\]\.lc_i\.cfg\[6\]
*423 y_c\[1\]\.x_c\[0\]\.lc_i\.cfg\[7\]
*424 y_c\[1\]\.x_c\[0\]\.lc_i\.cfg_strb\[0\]
*425 y_c\[1\]\.x_c\[0\]\.lc_i\.cfg_strb\[1\]
*426 y_c\[1\]\.x_c\[0\]\.lc_i\.dff\.dffo_n
*427 y_c\[1\]\.x_c\[0\]\.lc_i\.i0
*428 y_c\[1\]\.x_c\[0\]\.lc_i\.i0a
*429 y_c\[1\]\.x_c\[0\]\.lc_i\.i0b
*430 y_c\[1\]\.x_c\[0\]\.lc_i\.i1
*431 y_c\[1\]\.x_c\[0\]\.lc_i\.i1a
*432 y_c\[1\]\.x_c\[0\]\.lc_i\.i1b
*433 y_c\[1\]\.x_c\[0\]\.lc_i\.muxo_n
*434 y_c\[1\]\.x_c\[0\]\.lc_i\.s0
*435 y_c\[1\]\.x_c\[0\]\.lc_i\.s0a
*436 y_c\[1\]\.x_c\[0\]\.lc_i\.s0b
*437 y_c\[1\]\.x_c\[0\]\.lc_i\.s0s
*438 y_c\[1\]\.x_c\[1\]\.lc_i\.B
*439 y_c\[1\]\.x_c\[1\]\.lc_i\.cfg\[0\]
*440 y_c\[1\]\.x_c\[1\]\.lc_i\.cfg\[1\]
*441 y_c\[1\]\.x_c\[1\]\.lc_i\.cfg\[2\]
*442 y_c\[1\]\.x_c\[1\]\.lc_i\.cfg\[3\]
*443 y_c\[1\]\.x_c\[1\]\.lc_i\.cfg\[4\]
*444 y_c\[1\]\.x_c\[1\]\.lc_i\.cfg\[5\]
*445 y_c\[1\]\.x_c\[1\]\.lc_i\.cfg\[6\]
*446 y_c\[1\]\.x_c\[1\]\.lc_i\.cfg\[7\]
*447 y_c\[1\]\.x_c\[1\]\.lc_i\.dff\.dffo_n
*448 y_c\[1\]\.x_c\[1\]\.lc_i\.i0
*449 y_c\[1\]\.x_c\[1\]\.lc_i\.i0a
*450 y_c\[1\]\.x_c\[1\]\.lc_i\.i0b
*451 y_c\[1\]\.x_c\[1\]\.lc_i\.i1
*452 y_c\[1\]\.x_c\[1\]\.lc_i\.i1a
*453 y_c\[1\]\.x_c\[1\]\.lc_i\.i1b
*454 y_c\[1\]\.x_c\[1\]\.lc_i\.muxo_n
*455 y_c\[1\]\.x_c\[1\]\.lc_i\.s0
*456 y_c\[1\]\.x_c\[1\]\.lc_i\.s0a
*457 y_c\[1\]\.x_c\[1\]\.lc_i\.s0b
*458 y_c\[1\]\.x_c\[1\]\.lc_i\.s0s
*459 y_c\[1\]\.x_c\[2\]\.lc_i\.B
*460 y_c\[1\]\.x_c\[2\]\.lc_i\.cfg\[0\]
*461 y_c\[1\]\.x_c\[2\]\.lc_i\.cfg\[1\]
*462 y_c\[1\]\.x_c\[2\]\.lc_i\.cfg\[2\]
*463 y_c\[1\]\.x_c\[2\]\.lc_i\.cfg\[3\]
*464 y_c\[1\]\.x_c\[2\]\.lc_i\.cfg\[4\]
*465 y_c\[1\]\.x_c\[2\]\.lc_i\.cfg\[5\]
*466 y_c\[1\]\.x_c\[2\]\.lc_i\.cfg\[6\]
*467 y_c\[1\]\.x_c\[2\]\.lc_i\.cfg\[7\]
*468 y_c\[1\]\.x_c\[2\]\.lc_i\.dff\.dffo_n
*469 y_c\[1\]\.x_c\[2\]\.lc_i\.i0
*470 y_c\[1\]\.x_c\[2\]\.lc_i\.i0a
*471 y_c\[1\]\.x_c\[2\]\.lc_i\.i0b
*472 y_c\[1\]\.x_c\[2\]\.lc_i\.i1
*473 y_c\[1\]\.x_c\[2\]\.lc_i\.i1a
*474 y_c\[1\]\.x_c\[2\]\.lc_i\.i1b
*475 y_c\[1\]\.x_c\[2\]\.lc_i\.muxo_n
*476 y_c\[1\]\.x_c\[2\]\.lc_i\.s0
*477 y_c\[1\]\.x_c\[2\]\.lc_i\.s0a
*478 y_c\[1\]\.x_c\[2\]\.lc_i\.s0b
*479 y_c\[1\]\.x_c\[2\]\.lc_i\.s0s
*480 y_c\[1\]\.x_c\[3\]\.lc_i\.B
*481 y_c\[1\]\.x_c\[3\]\.lc_i\.cfg\[0\]
*482 y_c\[1\]\.x_c\[3\]\.lc_i\.cfg\[1\]
*483 y_c\[1\]\.x_c\[3\]\.lc_i\.cfg\[2\]
*484 y_c\[1\]\.x_c\[3\]\.lc_i\.cfg\[3\]
*485 y_c\[1\]\.x_c\[3\]\.lc_i\.cfg\[4\]
*486 y_c\[1\]\.x_c\[3\]\.lc_i\.cfg\[5\]
*487 y_c\[1\]\.x_c\[3\]\.lc_i\.cfg\[6\]
*488 y_c\[1\]\.x_c\[3\]\.lc_i\.cfg\[7\]
*489 y_c\[1\]\.x_c\[3\]\.lc_i\.dff\.dffo_n
*490 y_c\[1\]\.x_c\[3\]\.lc_i\.i0
*491 y_c\[1\]\.x_c\[3\]\.lc_i\.i0a
*492 y_c\[1\]\.x_c\[3\]\.lc_i\.i0b
*493 y_c\[1\]\.x_c\[3\]\.lc_i\.i1
*494 y_c\[1\]\.x_c\[3\]\.lc_i\.i1a
*495 y_c\[1\]\.x_c\[3\]\.lc_i\.i1b
*496 y_c\[1\]\.x_c\[3\]\.lc_i\.muxo_n
*497 y_c\[1\]\.x_c\[3\]\.lc_i\.s0
*498 y_c\[1\]\.x_c\[3\]\.lc_i\.s0a
*499 y_c\[1\]\.x_c\[3\]\.lc_i\.s0b
*500 y_c\[1\]\.x_c\[3\]\.lc_i\.s0s
*501 y_c\[1\]\.x_c\[4\]\.lc_i\.B
*502 y_c\[1\]\.x_c\[4\]\.lc_i\.cfg\[0\]
*503 y_c\[1\]\.x_c\[4\]\.lc_i\.cfg\[1\]
*504 y_c\[1\]\.x_c\[4\]\.lc_i\.cfg\[2\]
*505 y_c\[1\]\.x_c\[4\]\.lc_i\.cfg\[3\]
*506 y_c\[1\]\.x_c\[4\]\.lc_i\.cfg\[4\]
*507 y_c\[1\]\.x_c\[4\]\.lc_i\.cfg\[5\]
*508 y_c\[1\]\.x_c\[4\]\.lc_i\.cfg\[6\]
*509 y_c\[1\]\.x_c\[4\]\.lc_i\.cfg\[7\]
*510 y_c\[1\]\.x_c\[4\]\.lc_i\.dff\.dffo_n
*511 y_c\[1\]\.x_c\[4\]\.lc_i\.i0
*512 y_c\[1\]\.x_c\[4\]\.lc_i\.i0a
*513 y_c\[1\]\.x_c\[4\]\.lc_i\.i0b
*514 y_c\[1\]\.x_c\[4\]\.lc_i\.i1
*515 y_c\[1\]\.x_c\[4\]\.lc_i\.i1a
*516 y_c\[1\]\.x_c\[4\]\.lc_i\.i1b
*517 y_c\[1\]\.x_c\[4\]\.lc_i\.muxo_n
*518 y_c\[1\]\.x_c\[4\]\.lc_i\.s0
*519 y_c\[1\]\.x_c\[4\]\.lc_i\.s0a
*520 y_c\[1\]\.x_c\[4\]\.lc_i\.s0b
*521 y_c\[1\]\.x_c\[4\]\.lc_i\.s0s
*522 y_c\[2\]\.x_c\[0\]\.lc_i\.B
*523 y_c\[2\]\.x_c\[0\]\.lc_i\.cfg\[0\]
*524 y_c\[2\]\.x_c\[0\]\.lc_i\.cfg\[1\]
*525 y_c\[2\]\.x_c\[0\]\.lc_i\.cfg\[2\]
*526 y_c\[2\]\.x_c\[0\]\.lc_i\.cfg\[3\]
*527 y_c\[2\]\.x_c\[0\]\.lc_i\.cfg\[4\]
*528 y_c\[2\]\.x_c\[0\]\.lc_i\.cfg\[5\]
*529 y_c\[2\]\.x_c\[0\]\.lc_i\.cfg\[6\]
*530 y_c\[2\]\.x_c\[0\]\.lc_i\.cfg\[7\]
*531 y_c\[2\]\.x_c\[0\]\.lc_i\.cfg_strb\[0\]
*532 y_c\[2\]\.x_c\[0\]\.lc_i\.cfg_strb\[1\]
*533 y_c\[2\]\.x_c\[0\]\.lc_i\.dff\.dffo_n
*534 y_c\[2\]\.x_c\[0\]\.lc_i\.i0
*535 y_c\[2\]\.x_c\[0\]\.lc_i\.i0a
*536 y_c\[2\]\.x_c\[0\]\.lc_i\.i0b
*537 y_c\[2\]\.x_c\[0\]\.lc_i\.i1
*538 y_c\[2\]\.x_c\[0\]\.lc_i\.i1a
*539 y_c\[2\]\.x_c\[0\]\.lc_i\.i1b
*540 y_c\[2\]\.x_c\[0\]\.lc_i\.muxo_n
*541 y_c\[2\]\.x_c\[0\]\.lc_i\.s0
*542 y_c\[2\]\.x_c\[0\]\.lc_i\.s0a
*543 y_c\[2\]\.x_c\[0\]\.lc_i\.s0b
*544 y_c\[2\]\.x_c\[0\]\.lc_i\.s0s
*545 y_c\[2\]\.x_c\[1\]\.lc_i\.B
*546 y_c\[2\]\.x_c\[1\]\.lc_i\.cfg\[0\]
*547 y_c\[2\]\.x_c\[1\]\.lc_i\.cfg\[1\]
*548 y_c\[2\]\.x_c\[1\]\.lc_i\.cfg\[2\]
*549 y_c\[2\]\.x_c\[1\]\.lc_i\.cfg\[3\]
*550 y_c\[2\]\.x_c\[1\]\.lc_i\.cfg\[4\]
*551 y_c\[2\]\.x_c\[1\]\.lc_i\.cfg\[5\]
*552 y_c\[2\]\.x_c\[1\]\.lc_i\.cfg\[6\]
*553 y_c\[2\]\.x_c\[1\]\.lc_i\.cfg\[7\]
*554 y_c\[2\]\.x_c\[1\]\.lc_i\.dff\.dffo_n
*555 y_c\[2\]\.x_c\[1\]\.lc_i\.i0
*556 y_c\[2\]\.x_c\[1\]\.lc_i\.i0a
*557 y_c\[2\]\.x_c\[1\]\.lc_i\.i0b
*558 y_c\[2\]\.x_c\[1\]\.lc_i\.i1
*559 y_c\[2\]\.x_c\[1\]\.lc_i\.i1a
*560 y_c\[2\]\.x_c\[1\]\.lc_i\.i1b
*561 y_c\[2\]\.x_c\[1\]\.lc_i\.muxo_n
*562 y_c\[2\]\.x_c\[1\]\.lc_i\.s0
*563 y_c\[2\]\.x_c\[1\]\.lc_i\.s0a
*564 y_c\[2\]\.x_c\[1\]\.lc_i\.s0b
*565 y_c\[2\]\.x_c\[1\]\.lc_i\.s0s
*566 y_c\[2\]\.x_c\[2\]\.lc_i\.B
*567 y_c\[2\]\.x_c\[2\]\.lc_i\.cfg\[0\]
*568 y_c\[2\]\.x_c\[2\]\.lc_i\.cfg\[1\]
*569 y_c\[2\]\.x_c\[2\]\.lc_i\.cfg\[2\]
*570 y_c\[2\]\.x_c\[2\]\.lc_i\.cfg\[3\]
*571 y_c\[2\]\.x_c\[2\]\.lc_i\.cfg\[4\]
*572 y_c\[2\]\.x_c\[2\]\.lc_i\.cfg\[5\]
*573 y_c\[2\]\.x_c\[2\]\.lc_i\.cfg\[6\]
*574 y_c\[2\]\.x_c\[2\]\.lc_i\.cfg\[7\]
*575 y_c\[2\]\.x_c\[2\]\.lc_i\.dff\.dffo_n
*576 y_c\[2\]\.x_c\[2\]\.lc_i\.i0
*577 y_c\[2\]\.x_c\[2\]\.lc_i\.i0a
*578 y_c\[2\]\.x_c\[2\]\.lc_i\.i0b
*579 y_c\[2\]\.x_c\[2\]\.lc_i\.i1
*580 y_c\[2\]\.x_c\[2\]\.lc_i\.i1a
*581 y_c\[2\]\.x_c\[2\]\.lc_i\.i1b
*582 y_c\[2\]\.x_c\[2\]\.lc_i\.muxo_n
*583 y_c\[2\]\.x_c\[2\]\.lc_i\.s0
*584 y_c\[2\]\.x_c\[2\]\.lc_i\.s0a
*585 y_c\[2\]\.x_c\[2\]\.lc_i\.s0b
*586 y_c\[2\]\.x_c\[2\]\.lc_i\.s0s
*587 y_c\[2\]\.x_c\[3\]\.lc_i\.B
*588 y_c\[2\]\.x_c\[3\]\.lc_i\.cfg\[0\]
*589 y_c\[2\]\.x_c\[3\]\.lc_i\.cfg\[1\]
*590 y_c\[2\]\.x_c\[3\]\.lc_i\.cfg\[2\]
*591 y_c\[2\]\.x_c\[3\]\.lc_i\.cfg\[3\]
*592 y_c\[2\]\.x_c\[3\]\.lc_i\.cfg\[4\]
*593 y_c\[2\]\.x_c\[3\]\.lc_i\.cfg\[5\]
*594 y_c\[2\]\.x_c\[3\]\.lc_i\.cfg\[6\]
*595 y_c\[2\]\.x_c\[3\]\.lc_i\.cfg\[7\]
*596 y_c\[2\]\.x_c\[3\]\.lc_i\.dff\.dffo_n
*597 y_c\[2\]\.x_c\[3\]\.lc_i\.i0
*598 y_c\[2\]\.x_c\[3\]\.lc_i\.i0a
*599 y_c\[2\]\.x_c\[3\]\.lc_i\.i0b
*600 y_c\[2\]\.x_c\[3\]\.lc_i\.i1
*601 y_c\[2\]\.x_c\[3\]\.lc_i\.i1a
*602 y_c\[2\]\.x_c\[3\]\.lc_i\.i1b
*603 y_c\[2\]\.x_c\[3\]\.lc_i\.muxo_n
*604 y_c\[2\]\.x_c\[3\]\.lc_i\.s0
*605 y_c\[2\]\.x_c\[3\]\.lc_i\.s0a
*606 y_c\[2\]\.x_c\[3\]\.lc_i\.s0b
*607 y_c\[2\]\.x_c\[3\]\.lc_i\.s0s
*608 y_c\[2\]\.x_c\[4\]\.lc_i\.B
*609 y_c\[2\]\.x_c\[4\]\.lc_i\.cfg\[0\]
*610 y_c\[2\]\.x_c\[4\]\.lc_i\.cfg\[1\]
*611 y_c\[2\]\.x_c\[4\]\.lc_i\.cfg\[2\]
*612 y_c\[2\]\.x_c\[4\]\.lc_i\.cfg\[3\]
*613 y_c\[2\]\.x_c\[4\]\.lc_i\.cfg\[4\]
*614 y_c\[2\]\.x_c\[4\]\.lc_i\.cfg\[5\]
*615 y_c\[2\]\.x_c\[4\]\.lc_i\.cfg\[6\]
*616 y_c\[2\]\.x_c\[4\]\.lc_i\.cfg\[7\]
*617 y_c\[2\]\.x_c\[4\]\.lc_i\.dff\.dffo_n
*618 y_c\[2\]\.x_c\[4\]\.lc_i\.i0
*619 y_c\[2\]\.x_c\[4\]\.lc_i\.i0a
*620 y_c\[2\]\.x_c\[4\]\.lc_i\.i0b
*621 y_c\[2\]\.x_c\[4\]\.lc_i\.i1
*622 y_c\[2\]\.x_c\[4\]\.lc_i\.i1a
*623 y_c\[2\]\.x_c\[4\]\.lc_i\.i1b
*624 y_c\[2\]\.x_c\[4\]\.lc_i\.muxo_n
*625 y_c\[2\]\.x_c\[4\]\.lc_i\.s0
*626 y_c\[2\]\.x_c\[4\]\.lc_i\.s0a
*627 y_c\[2\]\.x_c\[4\]\.lc_i\.s0b
*628 y_c\[2\]\.x_c\[4\]\.lc_i\.s0s
*629 y_c\[3\]\.x_c\[0\]\.lc_i\.B
*630 y_c\[3\]\.x_c\[0\]\.lc_i\.cfg\[0\]
*631 y_c\[3\]\.x_c\[0\]\.lc_i\.cfg\[1\]
*632 y_c\[3\]\.x_c\[0\]\.lc_i\.cfg\[2\]
*633 y_c\[3\]\.x_c\[0\]\.lc_i\.cfg\[3\]
*634 y_c\[3\]\.x_c\[0\]\.lc_i\.cfg\[4\]
*635 y_c\[3\]\.x_c\[0\]\.lc_i\.cfg\[5\]
*636 y_c\[3\]\.x_c\[0\]\.lc_i\.cfg\[6\]
*637 y_c\[3\]\.x_c\[0\]\.lc_i\.cfg\[7\]
*638 y_c\[3\]\.x_c\[0\]\.lc_i\.cfg_strb\[0\]
*639 y_c\[3\]\.x_c\[0\]\.lc_i\.cfg_strb\[1\]
*640 y_c\[3\]\.x_c\[0\]\.lc_i\.dff\.dffo_n
*641 y_c\[3\]\.x_c\[0\]\.lc_i\.i0
*642 y_c\[3\]\.x_c\[0\]\.lc_i\.i0a
*643 y_c\[3\]\.x_c\[0\]\.lc_i\.i0b
*644 y_c\[3\]\.x_c\[0\]\.lc_i\.i1
*645 y_c\[3\]\.x_c\[0\]\.lc_i\.i1a
*646 y_c\[3\]\.x_c\[0\]\.lc_i\.i1b
*647 y_c\[3\]\.x_c\[0\]\.lc_i\.muxo_n
*648 y_c\[3\]\.x_c\[0\]\.lc_i\.s0
*649 y_c\[3\]\.x_c\[0\]\.lc_i\.s0a
*650 y_c\[3\]\.x_c\[0\]\.lc_i\.s0b
*651 y_c\[3\]\.x_c\[0\]\.lc_i\.s0s
*652 y_c\[3\]\.x_c\[1\]\.lc_i\.B
*653 y_c\[3\]\.x_c\[1\]\.lc_i\.cfg\[0\]
*654 y_c\[3\]\.x_c\[1\]\.lc_i\.cfg\[1\]
*655 y_c\[3\]\.x_c\[1\]\.lc_i\.cfg\[2\]
*656 y_c\[3\]\.x_c\[1\]\.lc_i\.cfg\[3\]
*657 y_c\[3\]\.x_c\[1\]\.lc_i\.cfg\[4\]
*658 y_c\[3\]\.x_c\[1\]\.lc_i\.cfg\[5\]
*659 y_c\[3\]\.x_c\[1\]\.lc_i\.cfg\[6\]
*660 y_c\[3\]\.x_c\[1\]\.lc_i\.cfg\[7\]
*661 y_c\[3\]\.x_c\[1\]\.lc_i\.dff\.dffo_n
*662 y_c\[3\]\.x_c\[1\]\.lc_i\.i0
*663 y_c\[3\]\.x_c\[1\]\.lc_i\.i0a
*664 y_c\[3\]\.x_c\[1\]\.lc_i\.i0b
*665 y_c\[3\]\.x_c\[1\]\.lc_i\.i1
*666 y_c\[3\]\.x_c\[1\]\.lc_i\.i1a
*667 y_c\[3\]\.x_c\[1\]\.lc_i\.i1b
*668 y_c\[3\]\.x_c\[1\]\.lc_i\.muxo_n
*669 y_c\[3\]\.x_c\[1\]\.lc_i\.s0
*670 y_c\[3\]\.x_c\[1\]\.lc_i\.s0a
*671 y_c\[3\]\.x_c\[1\]\.lc_i\.s0b
*672 y_c\[3\]\.x_c\[1\]\.lc_i\.s0s
*673 y_c\[3\]\.x_c\[2\]\.lc_i\.B
*674 y_c\[3\]\.x_c\[2\]\.lc_i\.cfg\[0\]
*675 y_c\[3\]\.x_c\[2\]\.lc_i\.cfg\[1\]
*676 y_c\[3\]\.x_c\[2\]\.lc_i\.cfg\[2\]
*677 y_c\[3\]\.x_c\[2\]\.lc_i\.cfg\[3\]
*678 y_c\[3\]\.x_c\[2\]\.lc_i\.cfg\[4\]
*679 y_c\[3\]\.x_c\[2\]\.lc_i\.cfg\[5\]
*680 y_c\[3\]\.x_c\[2\]\.lc_i\.cfg\[6\]
*681 y_c\[3\]\.x_c\[2\]\.lc_i\.cfg\[7\]
*682 y_c\[3\]\.x_c\[2\]\.lc_i\.dff\.dffo_n
*683 y_c\[3\]\.x_c\[2\]\.lc_i\.i0
*684 y_c\[3\]\.x_c\[2\]\.lc_i\.i0a
*685 y_c\[3\]\.x_c\[2\]\.lc_i\.i0b
*686 y_c\[3\]\.x_c\[2\]\.lc_i\.i1
*687 y_c\[3\]\.x_c\[2\]\.lc_i\.i1a
*688 y_c\[3\]\.x_c\[2\]\.lc_i\.i1b
*689 y_c\[3\]\.x_c\[2\]\.lc_i\.muxo_n
*690 y_c\[3\]\.x_c\[2\]\.lc_i\.s0
*691 y_c\[3\]\.x_c\[2\]\.lc_i\.s0a
*692 y_c\[3\]\.x_c\[2\]\.lc_i\.s0b
*693 y_c\[3\]\.x_c\[2\]\.lc_i\.s0s
*694 y_c\[3\]\.x_c\[3\]\.lc_i\.B
*695 y_c\[3\]\.x_c\[3\]\.lc_i\.cfg\[0\]
*696 y_c\[3\]\.x_c\[3\]\.lc_i\.cfg\[1\]
*697 y_c\[3\]\.x_c\[3\]\.lc_i\.cfg\[2\]
*698 y_c\[3\]\.x_c\[3\]\.lc_i\.cfg\[3\]
*699 y_c\[3\]\.x_c\[3\]\.lc_i\.cfg\[4\]
*700 y_c\[3\]\.x_c\[3\]\.lc_i\.cfg\[5\]
*701 y_c\[3\]\.x_c\[3\]\.lc_i\.cfg\[6\]
*702 y_c\[3\]\.x_c\[3\]\.lc_i\.cfg\[7\]
*703 y_c\[3\]\.x_c\[3\]\.lc_i\.dff\.dffo_n
*704 y_c\[3\]\.x_c\[3\]\.lc_i\.i0
*705 y_c\[3\]\.x_c\[3\]\.lc_i\.i0a
*706 y_c\[3\]\.x_c\[3\]\.lc_i\.i0b
*707 y_c\[3\]\.x_c\[3\]\.lc_i\.i1
*708 y_c\[3\]\.x_c\[3\]\.lc_i\.i1a
*709 y_c\[3\]\.x_c\[3\]\.lc_i\.i1b
*710 y_c\[3\]\.x_c\[3\]\.lc_i\.muxo_n
*711 y_c\[3\]\.x_c\[3\]\.lc_i\.s0
*712 y_c\[3\]\.x_c\[3\]\.lc_i\.s0a
*713 y_c\[3\]\.x_c\[3\]\.lc_i\.s0b
*714 y_c\[3\]\.x_c\[3\]\.lc_i\.s0s
*715 y_c\[3\]\.x_c\[4\]\.lc_i\.B
*716 y_c\[3\]\.x_c\[4\]\.lc_i\.cfg\[0\]
*717 y_c\[3\]\.x_c\[4\]\.lc_i\.cfg\[1\]
*718 y_c\[3\]\.x_c\[4\]\.lc_i\.cfg\[2\]
*719 y_c\[3\]\.x_c\[4\]\.lc_i\.cfg\[3\]
*720 y_c\[3\]\.x_c\[4\]\.lc_i\.cfg\[4\]
*721 y_c\[3\]\.x_c\[4\]\.lc_i\.cfg\[5\]
*722 y_c\[3\]\.x_c\[4\]\.lc_i\.cfg\[6\]
*723 y_c\[3\]\.x_c\[4\]\.lc_i\.cfg\[7\]
*724 y_c\[3\]\.x_c\[4\]\.lc_i\.dff\.dffo_n
*725 y_c\[3\]\.x_c\[4\]\.lc_i\.i0
*726 y_c\[3\]\.x_c\[4\]\.lc_i\.i0a
*727 y_c\[3\]\.x_c\[4\]\.lc_i\.i0b
*728 y_c\[3\]\.x_c\[4\]\.lc_i\.i1
*729 y_c\[3\]\.x_c\[4\]\.lc_i\.i1a
*730 y_c\[3\]\.x_c\[4\]\.lc_i\.i1b
*731 y_c\[3\]\.x_c\[4\]\.lc_i\.muxo_n
*732 y_c\[3\]\.x_c\[4\]\.lc_i\.s0
*733 y_c\[3\]\.x_c\[4\]\.lc_i\.s0a
*734 y_c\[3\]\.x_c\[4\]\.lc_i\.s0b
*735 y_c\[3\]\.x_c\[4\]\.lc_i\.s0s
*736 y_c\[4\]\.x_c\[0\]\.lc_i\.B
*737 y_c\[4\]\.x_c\[0\]\.lc_i\.L
*738 y_c\[4\]\.x_c\[0\]\.lc_i\.cfg\[0\]
*739 y_c\[4\]\.x_c\[0\]\.lc_i\.cfg\[1\]
*740 y_c\[4\]\.x_c\[0\]\.lc_i\.cfg\[2\]
*741 y_c\[4\]\.x_c\[0\]\.lc_i\.cfg\[3\]
*742 y_c\[4\]\.x_c\[0\]\.lc_i\.cfg\[4\]
*743 y_c\[4\]\.x_c\[0\]\.lc_i\.cfg\[5\]
*744 y_c\[4\]\.x_c\[0\]\.lc_i\.cfg\[6\]
*745 y_c\[4\]\.x_c\[0\]\.lc_i\.cfg\[7\]
*746 y_c\[4\]\.x_c\[0\]\.lc_i\.cfg_strb\[0\]
*747 y_c\[4\]\.x_c\[0\]\.lc_i\.cfg_strb\[1\]
*748 y_c\[4\]\.x_c\[0\]\.lc_i\.dff\.dffo_n
*749 y_c\[4\]\.x_c\[0\]\.lc_i\.i0
*750 y_c\[4\]\.x_c\[0\]\.lc_i\.i0a
*751 y_c\[4\]\.x_c\[0\]\.lc_i\.i0b
*752 y_c\[4\]\.x_c\[0\]\.lc_i\.i1
*753 y_c\[4\]\.x_c\[0\]\.lc_i\.i1a
*754 y_c\[4\]\.x_c\[0\]\.lc_i\.i1b
*755 y_c\[4\]\.x_c\[0\]\.lc_i\.muxo_n
*756 y_c\[4\]\.x_c\[0\]\.lc_i\.s0
*757 y_c\[4\]\.x_c\[0\]\.lc_i\.s0a
*758 y_c\[4\]\.x_c\[0\]\.lc_i\.s0b
*759 y_c\[4\]\.x_c\[0\]\.lc_i\.s0s
*760 y_c\[4\]\.x_c\[1\]\.lc_i\.B
*761 y_c\[4\]\.x_c\[1\]\.lc_i\.cfg\[0\]
*762 y_c\[4\]\.x_c\[1\]\.lc_i\.cfg\[1\]
*763 y_c\[4\]\.x_c\[1\]\.lc_i\.cfg\[2\]
*764 y_c\[4\]\.x_c\[1\]\.lc_i\.cfg\[3\]
*765 y_c\[4\]\.x_c\[1\]\.lc_i\.cfg\[4\]
*766 y_c\[4\]\.x_c\[1\]\.lc_i\.cfg\[5\]
*767 y_c\[4\]\.x_c\[1\]\.lc_i\.cfg\[6\]
*768 y_c\[4\]\.x_c\[1\]\.lc_i\.cfg\[7\]
*769 y_c\[4\]\.x_c\[1\]\.lc_i\.dff\.dffo_n
*770 y_c\[4\]\.x_c\[1\]\.lc_i\.i0
*771 y_c\[4\]\.x_c\[1\]\.lc_i\.i0a
*772 y_c\[4\]\.x_c\[1\]\.lc_i\.i0b
*773 y_c\[4\]\.x_c\[1\]\.lc_i\.i1
*774 y_c\[4\]\.x_c\[1\]\.lc_i\.i1a
*775 y_c\[4\]\.x_c\[1\]\.lc_i\.i1b
*776 y_c\[4\]\.x_c\[1\]\.lc_i\.muxo_n
*777 y_c\[4\]\.x_c\[1\]\.lc_i\.s0
*778 y_c\[4\]\.x_c\[1\]\.lc_i\.s0a
*779 y_c\[4\]\.x_c\[1\]\.lc_i\.s0b
*780 y_c\[4\]\.x_c\[1\]\.lc_i\.s0s
*781 y_c\[4\]\.x_c\[2\]\.lc_i\.B
*782 y_c\[4\]\.x_c\[2\]\.lc_i\.cfg\[0\]
*783 y_c\[4\]\.x_c\[2\]\.lc_i\.cfg\[1\]
*784 y_c\[4\]\.x_c\[2\]\.lc_i\.cfg\[2\]
*785 y_c\[4\]\.x_c\[2\]\.lc_i\.cfg\[3\]
*786 y_c\[4\]\.x_c\[2\]\.lc_i\.cfg\[4\]
*787 y_c\[4\]\.x_c\[2\]\.lc_i\.cfg\[5\]
*788 y_c\[4\]\.x_c\[2\]\.lc_i\.cfg\[6\]
*789 y_c\[4\]\.x_c\[2\]\.lc_i\.cfg\[7\]
*790 y_c\[4\]\.x_c\[2\]\.lc_i\.dff\.dffo_n
*791 y_c\[4\]\.x_c\[2\]\.lc_i\.i0
*792 y_c\[4\]\.x_c\[2\]\.lc_i\.i0a
*793 y_c\[4\]\.x_c\[2\]\.lc_i\.i0b
*794 y_c\[4\]\.x_c\[2\]\.lc_i\.i1
*795 y_c\[4\]\.x_c\[2\]\.lc_i\.i1a
*796 y_c\[4\]\.x_c\[2\]\.lc_i\.i1b
*797 y_c\[4\]\.x_c\[2\]\.lc_i\.muxo_n
*798 y_c\[4\]\.x_c\[2\]\.lc_i\.s0
*799 y_c\[4\]\.x_c\[2\]\.lc_i\.s0a
*800 y_c\[4\]\.x_c\[2\]\.lc_i\.s0b
*801 y_c\[4\]\.x_c\[2\]\.lc_i\.s0s
*802 y_c\[4\]\.x_c\[3\]\.lc_i\.B
*803 y_c\[4\]\.x_c\[3\]\.lc_i\.cfg\[0\]
*804 y_c\[4\]\.x_c\[3\]\.lc_i\.cfg\[1\]
*805 y_c\[4\]\.x_c\[3\]\.lc_i\.cfg\[2\]
*806 y_c\[4\]\.x_c\[3\]\.lc_i\.cfg\[3\]
*807 y_c\[4\]\.x_c\[3\]\.lc_i\.cfg\[4\]
*808 y_c\[4\]\.x_c\[3\]\.lc_i\.cfg\[5\]
*809 y_c\[4\]\.x_c\[3\]\.lc_i\.cfg\[6\]
*810 y_c\[4\]\.x_c\[3\]\.lc_i\.cfg\[7\]
*811 y_c\[4\]\.x_c\[3\]\.lc_i\.dff\.dffo_n
*812 y_c\[4\]\.x_c\[3\]\.lc_i\.i0
*813 y_c\[4\]\.x_c\[3\]\.lc_i\.i0a
*814 y_c\[4\]\.x_c\[3\]\.lc_i\.i0b
*815 y_c\[4\]\.x_c\[3\]\.lc_i\.i1
*816 y_c\[4\]\.x_c\[3\]\.lc_i\.i1a
*817 y_c\[4\]\.x_c\[3\]\.lc_i\.i1b
*818 y_c\[4\]\.x_c\[3\]\.lc_i\.muxo_n
*819 y_c\[4\]\.x_c\[3\]\.lc_i\.s0
*820 y_c\[4\]\.x_c\[3\]\.lc_i\.s0a
*821 y_c\[4\]\.x_c\[3\]\.lc_i\.s0b
*822 y_c\[4\]\.x_c\[3\]\.lc_i\.s0s
*823 y_c\[4\]\.x_c\[4\]\.lc_i\.B
*824 y_c\[4\]\.x_c\[4\]\.lc_i\.cfg\[0\]
*825 y_c\[4\]\.x_c\[4\]\.lc_i\.cfg\[1\]
*826 y_c\[4\]\.x_c\[4\]\.lc_i\.cfg\[2\]
*827 y_c\[4\]\.x_c\[4\]\.lc_i\.cfg\[3\]
*828 y_c\[4\]\.x_c\[4\]\.lc_i\.cfg\[4\]
*829 y_c\[4\]\.x_c\[4\]\.lc_i\.cfg\[5\]
*830 y_c\[4\]\.x_c\[4\]\.lc_i\.cfg\[6\]
*831 y_c\[4\]\.x_c\[4\]\.lc_i\.cfg\[7\]
*832 y_c\[4\]\.x_c\[4\]\.lc_i\.dff\.dffo_n
*833 y_c\[4\]\.x_c\[4\]\.lc_i\.i0
*834 y_c\[4\]\.x_c\[4\]\.lc_i\.i0a
*835 y_c\[4\]\.x_c\[4\]\.lc_i\.i0b
*836 y_c\[4\]\.x_c\[4\]\.lc_i\.i1
*837 y_c\[4\]\.x_c\[4\]\.lc_i\.i1a
*838 y_c\[4\]\.x_c\[4\]\.lc_i\.i1b
*839 y_c\[4\]\.x_c\[4\]\.lc_i\.muxo_n
*840 y_c\[4\]\.x_c\[4\]\.lc_i\.s0
*841 y_c\[4\]\.x_c\[4\]\.lc_i\.s0a
*842 y_c\[4\]\.x_c\[4\]\.lc_i\.s0b
*843 y_c\[4\]\.x_c\[4\]\.lc_i\.s0s
*844 y_c\[5\]\.x_c\[0\]\.lc_i\.L
*845 y_c\[5\]\.x_c\[0\]\.lc_i\.cfg\[0\]
*846 y_c\[5\]\.x_c\[0\]\.lc_i\.cfg\[1\]
*847 y_c\[5\]\.x_c\[0\]\.lc_i\.cfg\[2\]
*848 y_c\[5\]\.x_c\[0\]\.lc_i\.cfg\[3\]
*849 y_c\[5\]\.x_c\[0\]\.lc_i\.cfg\[4\]
*850 y_c\[5\]\.x_c\[0\]\.lc_i\.cfg\[5\]
*851 y_c\[5\]\.x_c\[0\]\.lc_i\.cfg\[6\]
*852 y_c\[5\]\.x_c\[0\]\.lc_i\.cfg\[7\]
*853 y_c\[5\]\.x_c\[0\]\.lc_i\.cfg_strb\[0\]
*854 y_c\[5\]\.x_c\[0\]\.lc_i\.cfg_strb\[1\]
*855 y_c\[5\]\.x_c\[0\]\.lc_i\.dff\.dffo_n
*856 y_c\[5\]\.x_c\[0\]\.lc_i\.i0
*857 y_c\[5\]\.x_c\[0\]\.lc_i\.i0a
*858 y_c\[5\]\.x_c\[0\]\.lc_i\.i0b
*859 y_c\[5\]\.x_c\[0\]\.lc_i\.i1
*860 y_c\[5\]\.x_c\[0\]\.lc_i\.i1a
*861 y_c\[5\]\.x_c\[0\]\.lc_i\.i1b
*862 y_c\[5\]\.x_c\[0\]\.lc_i\.muxo_n
*863 y_c\[5\]\.x_c\[0\]\.lc_i\.s0
*864 y_c\[5\]\.x_c\[0\]\.lc_i\.s0a
*865 y_c\[5\]\.x_c\[0\]\.lc_i\.s0b
*866 y_c\[5\]\.x_c\[0\]\.lc_i\.s0s
*867 y_c\[5\]\.x_c\[1\]\.lc_i\.cfg\[0\]
*868 y_c\[5\]\.x_c\[1\]\.lc_i\.cfg\[1\]
*869 y_c\[5\]\.x_c\[1\]\.lc_i\.cfg\[2\]
*870 y_c\[5\]\.x_c\[1\]\.lc_i\.cfg\[3\]
*871 y_c\[5\]\.x_c\[1\]\.lc_i\.cfg\[4\]
*872 y_c\[5\]\.x_c\[1\]\.lc_i\.cfg\[5\]
*873 y_c\[5\]\.x_c\[1\]\.lc_i\.cfg\[6\]
*874 y_c\[5\]\.x_c\[1\]\.lc_i\.cfg\[7\]
*875 y_c\[5\]\.x_c\[1\]\.lc_i\.dff\.dffo_n
*876 y_c\[5\]\.x_c\[1\]\.lc_i\.i0
*877 y_c\[5\]\.x_c\[1\]\.lc_i\.i0a
*878 y_c\[5\]\.x_c\[1\]\.lc_i\.i0b
*879 y_c\[5\]\.x_c\[1\]\.lc_i\.i1
*880 y_c\[5\]\.x_c\[1\]\.lc_i\.i1a
*881 y_c\[5\]\.x_c\[1\]\.lc_i\.i1b
*882 y_c\[5\]\.x_c\[1\]\.lc_i\.muxo_n
*883 y_c\[5\]\.x_c\[1\]\.lc_i\.s0
*884 y_c\[5\]\.x_c\[1\]\.lc_i\.s0a
*885 y_c\[5\]\.x_c\[1\]\.lc_i\.s0b
*886 y_c\[5\]\.x_c\[1\]\.lc_i\.s0s
*887 y_c\[5\]\.x_c\[2\]\.lc_i\.cfg\[0\]
*888 y_c\[5\]\.x_c\[2\]\.lc_i\.cfg\[1\]
*889 y_c\[5\]\.x_c\[2\]\.lc_i\.cfg\[2\]
*890 y_c\[5\]\.x_c\[2\]\.lc_i\.cfg\[3\]
*891 y_c\[5\]\.x_c\[2\]\.lc_i\.cfg\[4\]
*892 y_c\[5\]\.x_c\[2\]\.lc_i\.cfg\[5\]
*893 y_c\[5\]\.x_c\[2\]\.lc_i\.cfg\[6\]
*894 y_c\[5\]\.x_c\[2\]\.lc_i\.cfg\[7\]
*895 y_c\[5\]\.x_c\[2\]\.lc_i\.dff\.dffo_n
*896 y_c\[5\]\.x_c\[2\]\.lc_i\.i0
*897 y_c\[5\]\.x_c\[2\]\.lc_i\.i0a
*898 y_c\[5\]\.x_c\[2\]\.lc_i\.i0b
*899 y_c\[5\]\.x_c\[2\]\.lc_i\.i1
*900 y_c\[5\]\.x_c\[2\]\.lc_i\.i1a
*901 y_c\[5\]\.x_c\[2\]\.lc_i\.i1b
*902 y_c\[5\]\.x_c\[2\]\.lc_i\.muxo_n
*903 y_c\[5\]\.x_c\[2\]\.lc_i\.s0
*904 y_c\[5\]\.x_c\[2\]\.lc_i\.s0a
*905 y_c\[5\]\.x_c\[2\]\.lc_i\.s0b
*906 y_c\[5\]\.x_c\[2\]\.lc_i\.s0s
*907 y_c\[5\]\.x_c\[3\]\.lc_i\.cfg\[0\]
*908 y_c\[5\]\.x_c\[3\]\.lc_i\.cfg\[1\]
*909 y_c\[5\]\.x_c\[3\]\.lc_i\.cfg\[2\]
*910 y_c\[5\]\.x_c\[3\]\.lc_i\.cfg\[3\]
*911 y_c\[5\]\.x_c\[3\]\.lc_i\.cfg\[4\]
*912 y_c\[5\]\.x_c\[3\]\.lc_i\.cfg\[5\]
*913 y_c\[5\]\.x_c\[3\]\.lc_i\.cfg\[6\]
*914 y_c\[5\]\.x_c\[3\]\.lc_i\.cfg\[7\]
*915 y_c\[5\]\.x_c\[3\]\.lc_i\.dff\.dffo_n
*916 y_c\[5\]\.x_c\[3\]\.lc_i\.i0
*917 y_c\[5\]\.x_c\[3\]\.lc_i\.i0a
*918 y_c\[5\]\.x_c\[3\]\.lc_i\.i0b
*919 y_c\[5\]\.x_c\[3\]\.lc_i\.i1
*920 y_c\[5\]\.x_c\[3\]\.lc_i\.i1a
*921 y_c\[5\]\.x_c\[3\]\.lc_i\.i1b
*922 y_c\[5\]\.x_c\[3\]\.lc_i\.muxo_n
*923 y_c\[5\]\.x_c\[3\]\.lc_i\.s0
*924 y_c\[5\]\.x_c\[3\]\.lc_i\.s0a
*925 y_c\[5\]\.x_c\[3\]\.lc_i\.s0b
*926 y_c\[5\]\.x_c\[3\]\.lc_i\.s0s
*927 y_c\[5\]\.x_c\[4\]\.lc_i\.cfg\[0\]
*928 y_c\[5\]\.x_c\[4\]\.lc_i\.cfg\[1\]
*929 y_c\[5\]\.x_c\[4\]\.lc_i\.cfg\[2\]
*930 y_c\[5\]\.x_c\[4\]\.lc_i\.cfg\[3\]
*931 y_c\[5\]\.x_c\[4\]\.lc_i\.cfg\[4\]
*932 y_c\[5\]\.x_c\[4\]\.lc_i\.cfg\[5\]
*933 y_c\[5\]\.x_c\[4\]\.lc_i\.cfg\[6\]
*934 y_c\[5\]\.x_c\[4\]\.lc_i\.cfg\[7\]
*935 y_c\[5\]\.x_c\[4\]\.lc_i\.dff\.dffo_n
*936 y_c\[5\]\.x_c\[4\]\.lc_i\.i0
*937 y_c\[5\]\.x_c\[4\]\.lc_i\.i0a
*938 y_c\[5\]\.x_c\[4\]\.lc_i\.i0b
*939 y_c\[5\]\.x_c\[4\]\.lc_i\.i1
*940 y_c\[5\]\.x_c\[4\]\.lc_i\.i1a
*941 y_c\[5\]\.x_c\[4\]\.lc_i\.i1b
*942 y_c\[5\]\.x_c\[4\]\.lc_i\.muxo_n
*943 y_c\[5\]\.x_c\[4\]\.lc_i\.s0
*944 y_c\[5\]\.x_c\[4\]\.lc_i\.s0a
*945 y_c\[5\]\.x_c\[4\]\.lc_i\.s0b
*946 y_c\[5\]\.x_c\[4\]\.lc_i\.s0s
*947 ANTENNA_0
*948 ANTENNA_1
*949 ANTENNA_10
*950 ANTENNA_2
*951 ANTENNA_3
*952 ANTENNA_4
*953 ANTENNA_5
*954 ANTENNA_6
*955 ANTENNA_7
*956 ANTENNA_8
*957 ANTENNA_9
*958 FILLER_0_108
*959 FILLER_0_113
*960 FILLER_0_123
*961 FILLER_0_135
*962 FILLER_0_139
*963 FILLER_0_145
*964 FILLER_0_161
*965 FILLER_0_167
*966 FILLER_0_169
*967 FILLER_0_187
*968 FILLER_0_19
*969 FILLER_0_195
*970 FILLER_0_201
*971 FILLER_0_208
*972 FILLER_0_215
*973 FILLER_0_223
*974 FILLER_0_228
*975 FILLER_0_235
*976 FILLER_0_242
*977 FILLER_0_250
*978 FILLER_0_253
*979 FILLER_0_265
*980 FILLER_0_27
*981 FILLER_0_277
*982 FILLER_0_281
*983 FILLER_0_293
*984 FILLER_0_37
*985 FILLER_0_43
*986 FILLER_0_52
*987 FILLER_0_61
*988 FILLER_0_67
*989 FILLER_0_79
*990 FILLER_0_83
*991 FILLER_0_96
*992 FILLER_10_116
*993 FILLER_10_124
*994 FILLER_10_136
*995 FILLER_10_159
*996 FILLER_10_166
*997 FILLER_10_182
*998 FILLER_10_190
*999 FILLER_10_197
*1000 FILLER_10_202
*1001 FILLER_10_217
*1002 FILLER_10_225
*1003 FILLER_10_238
*1004 FILLER_10_24
*1005 FILLER_10_245
*1006 FILLER_10_251
*1007 FILLER_10_265
*1008 FILLER_10_272
*1009 FILLER_10_284
*1010 FILLER_10_296
*1011 FILLER_10_3
*1012 FILLER_10_52
*1013 FILLER_10_78
*1014 FILLER_10_85
*1015 FILLER_10_94
*1016 FILLER_11_108
*1017 FILLER_11_113
*1018 FILLER_11_125
*1019 FILLER_11_129
*1020 FILLER_11_14
*1021 FILLER_11_148