*SPEF "ieee 1481-1999"
*DESIGN "github_com_proppy_tt02_xls_counter"
*DATE "11:11:11 Fri 11 11, 1111"
*VENDOR "OpenRCX"
*PROGRAM "Parallel Extraction"
*VERSION "1.0"
*DESIGN_FLOW "NAME_SCOPE LOCAL" "PIN_CAP NONE"
*DIVIDER /
*DELIMITER :
*BUS_DELIMITER []
*T_UNIT 1 NS
*C_UNIT 1 PF
*R_UNIT 1 OHM
*L_UNIT 1 HENRY

*NAME_MAP
*1 io_in[0]
*2 io_in[1]
*3 io_in[2]
*4 io_in[3]
*5 io_in[4]
*6 io_in[5]
*7 io_in[6]
*8 io_in[7]
*9 io_out[0]
*10 io_out[1]
*11 io_out[2]
*12 io_out[3]
*13 io_out[4]
*14 io_out[5]
*15 io_out[6]
*16 io_out[7]
*19 _00_
*20 _01_
*21 _02_
*22 _03_
*23 _04_
*24 _05_
*25 _06_
*26 _07_
*27 _08_
*28 _09_
*29 _10_
*30 _11_
*31 _12_
*32 _13_
*33 _14_
*34 _15_
*35 _16_
*36 _17_
*37 _18_
*38 _19_
*39 _20_
*40 _21_
*41 _22_
*42 _23_
*43 _24_
*44 _25_
*45 _26_
*46 _27_
*47 _28_
*48 _29_
*49 _30_
*50 _31_
*51 _32_
*52 _33_
*53 _34_
*54 _35_
*55 _36_
*56 _37_
*57 _38_
*58 _39_
*59 _40_
*60 _41_
*61 clknet_0_io_in[0]
*62 clknet_1_0__leaf_io_in[0]
*63 clknet_1_1__leaf_io_in[0]
*64 counter0\.____state\[0\]
*65 counter0\.____state\[1\]
*66 counter0\.____state\[2\]
*67 counter0\.____state\[3\]
*68 counter0\.____state\[4\]
*69 counter0\.____state\[5\]
*70 counter0\.____state\[6\]
*71 counter0\.____state\[7\]
*72 net1
*73 FILLER_0_109
*74 FILLER_0_113
*75 FILLER_0_125
*76 FILLER_0_137
*77 FILLER_0_141
*78 FILLER_0_153
*79 FILLER_0_165
*80 FILLER_0_169
*81 FILLER_0_181
*82 FILLER_0_193
*83 FILLER_0_197
*84 FILLER_0_209
*85 FILLER_0_221
*86 FILLER_0_225
*87 FILLER_0_237
*88 FILLER_0_24
*89 FILLER_0_249
*90 FILLER_0_253
*91 FILLER_0_265
*92 FILLER_0_277
*93 FILLER_0_281
*94 FILLER_0_29
*95 FILLER_0_293
*96 FILLER_0_3
*97 FILLER_0_35
*98 FILLER_0_52
*99 FILLER_0_57
*100 FILLER_0_69
*101 FILLER_0_81
*102 FILLER_0_85
*103 FILLER_0_97
*104 FILLER_10_109
*105 FILLER_10_121
*106 FILLER_10_133
*107 FILLER_10_139
*108 FILLER_10_141
*109 FILLER_10_153
*110 FILLER_10_165
*111 FILLER_10_177
*112 FILLER_10_189
*113 FILLER_10_19
*114 FILLER_10_195
*115 FILLER_10_197
*116 FILLER_10_209
*117 FILLER_10_221
*118 FILLER_10_233
*119 FILLER_10_245
*120 FILLER_10_251
*121 FILLER_10_253
*122 FILLER_10_265
*123 FILLER_10_27
*124 FILLER_10_277
*125 FILLER_10_289
*126 FILLER_10_29
*127 FILLER_10_297
*128 FILLER_10_41
*129 FILLER_10_47
*130 FILLER_10_54
*131 FILLER_10_66
*132 FILLER_10_78
*133 FILLER_10_85
*134 FILLER_10_97
*135 FILLER_11_105
*136 FILLER_11_111
*137 FILLER_11_113
*138 FILLER_11_125
*139 FILLER_11_137
*140 FILLER_11_149
*141 FILLER_11_15
*142 FILLER_11_161
*143 FILLER_11_167
*144 FILLER_11_169
*145 FILLER_11_181
*146 FILLER_11_193
*147 FILLER_11_205
*148 FILLER_11_217
*149 FILLER_11_223
*150 FILLER_11_225
*151 FILLER_11_237
*152 FILLER_11_249
*153 FILLER_11_261
*154 FILLER_11_27
*155 FILLER_11_273
*156 FILLER_11_279
*157 FILLER_11_281
*158 FILLER_11_293
*159 FILLER_11_3
*160 FILLER_11_39
*161 FILLER_11_51
*162 FILLER_11_55
*163 FILLER_11_57
*164 FILLER_11_69
*165 FILLER_11_81
*166 FILLER_11_93
*167 FILLER_12_109
*168 FILLER_12_121
*169 FILLER_12_133
*170 FILLER_12_139
*171 FILLER_12_147
*172 FILLER_12_15
*173 FILLER_12_159
*174 FILLER_12_171
*175 FILLER_12_183
*176 FILLER_12_195
*177 FILLER_12_197
*178 FILLER_12_209
*179 FILLER_12_221
*180 FILLER_12_233
*181 FILLER_12_245
*182 FILLER_12_251
*183 FILLER_12_253
*184 FILLER_12_265
*185 FILLER_12_27
*186 FILLER_12_277
*187 FILLER_12_289
*188 FILLER_12_29
*189 FILLER_12_297
*190 FILLER_12_3
*191 FILLER_12_37
*192 FILLER_12_42
*193 FILLER_12_59
*194 FILLER_12_71
*195 FILLER_12_78
*196 FILLER_12_85
*197 FILLER_12_97
*198 FILLER_13_105
*199 FILLER_13_111
*200 FILLER_13_113
*201 FILLER_13_125
*202 FILLER_13_137
*203 FILLER_13_149
*204 FILLER_13_16
*205 FILLER_13_161
*206 FILLER_13_167
*207 FILLER_13_169
*208 FILLER_13_181
*209 FILLER_13_193
*210 FILLER_13_205
*211 FILLER_13_217
*212 FILLER_13_223
*213 FILLER_13_225
*214 FILLER_13_237
*215 FILLER_13_24
*216 FILLER_13_249
*217 FILLER_13_261
*218 FILLER_13_273
*219 FILLER_13_279
*220 FILLER_13_281
*221 FILLER_13_293
*222 FILLER_13_3
*223 FILLER_13_36
*224 FILLER_13_48
*225 FILLER_13_57
*226 FILLER_13_69
*227 FILLER_13_8
*228 FILLER_13_81
*229 FILLER_13_93
*230 FILLER_14_109
*231 FILLER_14_121
*232 FILLER_14_133
*233 FILLER_14_139
*234 FILLER_14_141
*235 FILLER_14_15
*236 FILLER_14_153
*237 FILLER_14_165
*238 FILLER_14_177
*239 FILLER_14_189
*240 FILLER_14_195
*241 FILLER_14_197
*242 FILLER_14_209
*243 FILLER_14_221
*244 FILLER_14_233
*245 FILLER_14_245
*246 FILLER_14_251
*247 FILLER_14_253
*248 FILLER_14_265
*249 FILLER_14_27
*250 FILLER_14_277
*251 FILLER_14_289
*252 FILLER_14_29
*253 FILLER_14_297
*254 FILLER_14_3
*255 FILLER_14_41
*256 FILLER_14_49
*257 FILLER_14_55
*258 FILLER_14_71
*259 FILLER_14_83
*260 FILLER_14_85
*261 FILLER_14_97
*262 FILLER_15_105
*263 FILLER_15_111
*264 FILLER_15_120
*265 FILLER_15_132
*266 FILLER_15_144
*267 FILLER_15_15
*268 FILLER_15_156
*269 FILLER_15_169
*270 FILLER_15_181
*271 FILLER_15_193
*272 FILLER_15_205
*273 FILLER_15_217
*274 FILLER_15_223
*275 FILLER_15_225
*276 FILLER_15_237
*277 FILLER_15_249
*278 FILLER_15_261
*279 FILLER_15_27
*280 FILLER_15_273
*281 FILLER_15_279
*282 FILLER_15_281
*283 FILLER_15_293
*284 FILLER_15_3
*285 FILLER_15_39
*286 FILLER_15_51
*287 FILLER_15_55
*288 FILLER_15_57
*289 FILLER_15_69
*290 FILLER_15_81
*291 FILLER_15_93
*292 FILLER_16_109
*293 FILLER_16_121
*294 FILLER_16_133
*295 FILLER_16_139
*296 FILLER_16_141
*297 FILLER_16_153
*298 FILLER_16_165
*299 FILLER_16_177
*300 FILLER_16_189
*301 FILLER_16_195
*302 FILLER_16_197
*303 FILLER_16_209
*304 FILLER_16_21
*305 FILLER_16_221
*306 FILLER_16_233
*307 FILLER_16_245
*308 FILLER_16_251
*309 FILLER_16_253
*310 FILLER_16_265
*311 FILLER_16_27
*312 FILLER_16_277
*313 FILLER_16_289
*314 FILLER_16_297
*315 FILLER_16_3
*316 FILLER_16_35
*317 FILLER_16_42
*318 FILLER_16_54
*319 FILLER_16_66
*320 FILLER_16_78
*321 FILLER_16_85
*322 FILLER_16_9
*323 FILLER_16_97
*324 FILLER_17_106
*325 FILLER_17_113
*326 FILLER_17_125
*327 FILLER_17_137
*328 FILLER_17_149
*329 FILLER_17_15
*330 FILLER_17_161
*331 FILLER_17_167
*332 FILLER_17_169
*333 FILLER_17_181
*334 FILLER_17_193
*335 FILLER_17_205
*336 FILLER_17_217
*337 FILLER_17_223
*338 FILLER_17_225
*339 FILLER_17_237
*340 FILLER_17_249
*341 FILLER_17_261
*342 FILLER_17_27
*343 FILLER_17_273
*344 FILLER_17_279
*345 FILLER_17_281
*346 FILLER_17_293
*347 FILLER_17_3
*348 FILLER_17_39
*349 FILLER_17_51
*350 FILLER_17_55
*351 FILLER_17_57
*352 FILLER_17_69
*353 FILLER_17_81
*354 FILLER_17_89
*355 FILLER_17_94
*356 FILLER_18_109
*357 FILLER_18_121
*358 FILLER_18_133
*359 FILLER_18_139
*360 FILLER_18_145
*361 FILLER_18_157
*362 FILLER_18_169
*363 FILLER_18_181
*364 FILLER_18_193
*365 FILLER_18_197
*366 FILLER_18_20
*367 FILLER_18_209
*368 FILLER_18_221
*369 FILLER_18_233
*370 FILLER_18_245
*371 FILLER_18_251
*372 FILLER_18_253
*373 FILLER_18_265
*374 FILLER_18_277
*375 FILLER_18_289
*376 FILLER_18_29
*377 FILLER_18_297
*378 FILLER_18_41
*379 FILLER_18_53
*380 FILLER_18_60
*381 FILLER_18_72
*382 FILLER_18_85
*383 FILLER_18_9
*384 FILLER_18_97
*385 FILLER_19_105
*386 FILLER_19_111
*387 FILLER_19_113
*388 FILLER_19_125
*389 FILLER_19_137
*390 FILLER_19_149
*391 FILLER_19_15
*392 FILLER_19_161
*393 FILLER_19_167
*394 FILLER_19_169
*395 FILLER_19_181
*396 FILLER_19_193
*397 FILLER_19_205
*398 FILLER_19_217
*399 FILLER_19_223
*400 FILLER_19_225
*401 FILLER_19_237
*402 FILLER_19_249
*403 FILLER_19_261
*404 FILLER_19_27
*405 FILLER_19_273
*406 FILLER_19_279
*407 FILLER_19_281
*408 FILLER_19_293
*409 FILLER_19_3
*410 FILLER_19_39
*411 FILLER_19_51
*412 FILLER_19_55
*413 FILLER_19_57
*414 FILLER_19_69
*415 FILLER_19_81
*416 FILLER_19_93
*417 FILLER_1_103
*418 FILLER_1_111
*419 FILLER_1_116
*420 FILLER_1_128
*421 FILLER_1_140
*422 FILLER_1_15
*423 FILLER_1_152
*424 FILLER_1_159
*425 FILLER_1_167
*426 FILLER_1_169
*427 FILLER_1_181
*428 FILLER_1_193
*429 FILLER_1_205
*430 FILLER_1_217
*431 FILLER_1_223
*432 FILLER_1_225
*433 FILLER_1_237
*434 FILLER_1_249
*435 FILLER_1_261
*436 FILLER_1_273
*437 FILLER_1_279
*438 FILLER_1_281
*439 FILLER_1_293
*440 FILLER_1_3
*441 FILLER_1_36
*442 FILLER_1_48
*443 FILLER_1_60
*444 FILLER_1_72
*445 FILLER_1_84
*446 FILLER_1_92
*447 FILLER_1_98
*448 FILLER_20_109
*449 FILLER_20_121
*450 FILLER_20_133
*451 FILLER_20_139
*452 FILLER_20_141
*453 FILLER_20_15
*454 FILLER_20_153
*455 FILLER_20_165
*456 FILLER_20_177
*457 FILLER_20_189
*458 FILLER_20_195
*459 FILLER_20_197
*460 FILLER_20_209
*461 FILLER_20_221
*462 FILLER_20_233
*463 FILLER_20_245
*464 FILLER_20_251
*465 FILLER_20_253
*466 FILLER_20_265
*467 FILLER_20_27
*468 FILLER_20_277
*469 FILLER_20_289
*470 FILLER_20_29
*471 FILLER_20_297
*472 FILLER_20_3
*473 FILLER_20_41
*474 FILLER_20_53
*475 FILLER_20_65
*476 FILLER_20_71
*477 FILLER_20_80
*478 FILLER_20_85
*479 FILLER_20_97
*480 FILLER_21_111
*481 FILLER_21_113
*482 FILLER_21_125
*483 FILLER_21_137
*484 FILLER_21_149
*485 FILLER_21_15
*486 FILLER_21_161
*487 FILLER_21_167
*488 FILLER_21_169
*489 FILLER_21_181
*490 FILLER_21_193
*491 FILLER_21_205
*492 FILLER_21_217
*493 FILLER_21_223
*494 FILLER_21_225
*495 FILLER_21_237
*496 FILLER_21_249
*497 FILLER_21_261
*498 FILLER_21_27
*499 FILLER_21_273
*500 FILLER_21_279
*501 FILLER_21_281
*502 FILLER_21_293
*503 FILLER_21_3
*504 FILLER_21_39
*505 FILLER_21_51
*506 FILLER_21_55
*507 FILLER_21_57
*508 FILLER_21_63
*509 FILLER_21_75
*510 FILLER_21_87
*511 FILLER_21_99
*512 FILLER_22_109
*513 FILLER_22_121
*514 FILLER_22_133
*515 FILLER_22_139
*516 FILLER_22_141
*517 FILLER_22_15
*518 FILLER_22_153
*519 FILLER_22_165
*520 FILLER_22_177
*521 FILLER_22_189
*522 FILLER_22_195
*523 FILLER_22_197
*524 FILLER_22_209
*525 FILLER_22_221
*526 FILLER_22_233
*527 FILLER_22_245
*528 FILLER_22_251
*529 FILLER_22_253
*530 FILLER_22_265
*531 FILLER_22_27
*532 FILLER_22_277
*533 FILLER_22_289
*534 FILLER_22_29
*535 FILLER_22_297
*536 FILLER_22_3
*537 FILLER_22_41
*538 FILLER_22_53
*539 FILLER_22_65
*540 FILLER_22_77
*541 FILLER_22_83
*542 FILLER_22_85
*543 FILLER_22_97
*544 FILLER_23_105
*545 FILLER_23_111
*546 FILLER_23_113
*547 FILLER_23_125
*548 FILLER_23_137
*549 FILLER_23_149
*550 FILLER_23_15
*551 FILLER_23_161
*552 FILLER_23_167
*553 FILLER_23_169
*554 FILLER_23_181
*555 FILLER_23_193
*556 FILLER_23_205
*557 FILLER_23_217
*558 FILLER_23_223
*559 FILLER_23_225
*560 FILLER_23_237
*561 FILLER_23_249
*562 FILLER_23_261
*563 FILLER_23_27
*564 FILLER_23_273
*565 FILLER_23_279
*566 FILLER_23_281
*567 FILLER_23_293
*568 FILLER_23_3
*569 FILLER_23_39
*570 FILLER_23_51
*571 FILLER_23_55
*572 FILLER_23_57
*573 FILLER_23_69
*574 FILLER_23_81
*575 FILLER_23_93
*576 FILLER_24_109
*577 FILLER_24_121
*578 FILLER_24_126
*579 FILLER_24_138
*580 FILLER_24_141
*581 FILLER_24_15
*582 FILLER_24_153
*583 FILLER_24_165
*584 FILLER_24_177
*585 FILLER_24_189
*586 FILLER_24_195
*587 FILLER_24_197
*588 FILLER_24_209
*589 FILLER_24_221
*590 FILLER_24_233
*591 FILLER_24_245
*592 FILLER_24_251
*593 FILLER_24_253
*594 FILLER_24_265
*595 FILLER_24_27
*596 FILLER_24_277
*597 FILLER_24_289
*598 FILLER_24_29
*599 FILLER_24_297
*600 FILLER_24_3
*601 FILLER_24_38
*602 FILLER_24_50
*603 FILLER_24_62
*604 FILLER_24_74
*605 FILLER_24_82
*606 FILLER_24_85
*607 FILLER_24_97
*608 FILLER_25_105
*609 FILLER_25_111
*610 FILLER_25_113
*611 FILLER_25_125
*612 FILLER_25_137
*613 FILLER_25_149
*614 FILLER_25_15
*615 FILLER_25_161
*616 FILLER_25_167
*617 FILLER_25_169
*618 FILLER_25_181
*619 FILLER_25_193
*620 FILLER_25_205
*621 FILLER_25_217
*622 FILLER_25_223
*623 FILLER_25_225
*624 FILLER_25_237
*625 FILLER_25_249
*626 FILLER_25_261
*627 FILLER_25_27
*628 FILLER_25_273
*629 FILLER_25_279
*630 FILLER_25_281
*631 FILLER_25_293
*632 FILLER_25_3
*633 FILLER_25_39
*634 FILLER_25_51
*635 FILLER_25_55
*636 FILLER_25_57
*637 FILLER_25_69
*638 FILLER_25_81
*639 FILLER_25_93
*640 FILLER_26_109
*641 FILLER_26_121
*642 FILLER_26_133
*643 FILLER_26_139
*644 FILLER_26_141
*645 FILLER_26_15
*646 FILLER_26_153
*647 FILLER_26_165
*648 FILLER_26_177
*649 FILLER_26_189
*650 FILLER_26_195
*651 FILLER_26_197
*652 FILLER_26_209
*653 FILLER_26_221
*654 FILLER_26_233
*655 FILLER_26_245
*656 FILLER_26_251
*657 FILLER_26_253
*658 FILLER_26_265
*659 FILLER_26_27
*660 FILLER_26_277
*661 FILLER_26_289
*662 FILLER_26_29
*663 FILLER_26_297
*664 FILLER_26_3
*665 FILLER_26_41
*666 FILLER_26_53
*667 FILLER_26_65
*668 FILLER_26_77
*669 FILLER_26_83
*670 FILLER_26_85
*671 FILLER_26_97
*672 FILLER_27_105
*673 FILLER_27_111
*674 FILLER_27_113
*675 FILLER_27_12
*676 FILLER_27_125
*677 FILLER_27_137
*678 FILLER_27_149
*679 FILLER_27_161
*680 FILLER_27_167
*681 FILLER_27_169
*682 FILLER_27_181
*683 FILLER_27_193
*684 FILLER_27_205
*685 FILLER_27_217
*686 FILLER_27_223
*687 FILLER_27_225
*688 FILLER_27_237
*689 FILLER_27_24
*690 FILLER_27_249
*691 FILLER_27_261
*692 FILLER_27_273
*693 FILLER_27_279
*694 FILLER_27_281
*695 FILLER_27_293
*696 FILLER_27_3
*697 FILLER_27_36
*698 FILLER_27_48
*699 FILLER_27_57
*700 FILLER_27_69
*701 FILLER_27_7
*702 FILLER_27_81
*703 FILLER_27_93
*704 FILLER_28_109
*705 FILLER_28_121
*706 FILLER_28_133
*707 FILLER_28_139
*708 FILLER_28_141
*709 FILLER_28_15
*710 FILLER_28_153
*711 FILLER_28_165
*712 FILLER_28_177
*713 FILLER_28_189
*714 FILLER_28_195
*715 FILLER_28_197
*716 FILLER_28_209
*717 FILLER_28_221
*718 FILLER_28_233
*719 FILLER_28_245
*720 FILLER_28_251
*721 FILLER_28_253
*722 FILLER_28_265
*723 FILLER_28_27
*724 FILLER_28_277
*725 FILLER_28_289
*726 FILLER_28_29
*727 FILLER_28_297
*728 FILLER_28_3
*729 FILLER_28_41
*730 FILLER_28_53
*731 FILLER_28_65
*732 FILLER_28_77
*733 FILLER_28_83
*734 FILLER_28_85
*735 FILLER_28_97
*736 FILLER_29_102
*737 FILLER_29_110
*738 FILLER_29_113
*739 FILLER_29_125
*740 FILLER_29_137
*741 FILLER_29_149
*742 FILLER_29_15
*743 FILLER_29_161
*744 FILLER_29_167
*745 FILLER_29_169
*746 FILLER_29_181
*747 FILLER_29_193
*748 FILLER_29_205
*749 FILLER_29_217
*750 FILLER_29_223
*751 FILLER_29_225
*752 FILLER_29_237
*753 FILLER_29_249
*754 FILLER_29_261
*755 FILLER_29_27
*756 FILLER_29_273
*757 FILLER_29_279
*758 FILLER_29_281
*759 FILLER_29_293
*760 FILLER_29_3
*761 FILLER_29_39
*762 FILLER_29_51
*763 FILLER_29_55
*764 FILLER_29_57
*765 FILLER_29_69
*766 FILLER_29_81
*767 FILLER_29_90
*768 FILLER_2_109
*769 FILLER_2_121
*770 FILLER_2_133
*771 FILLER_2_139
*772 FILLER_2_141
*773 FILLER_2_153
*774 FILLER_2_165
*775 FILLER_2_177
*776 FILLER_2_189
*777 FILLER_2_195
*778 FILLER_2_197
*779 FILLER_2_209
*780 FILLER_2_22
*781 FILLER_2_221
*782 FILLER_2_233
*783 FILLER_2_245
*784 FILLER_2_251
*785 FILLER_2_253
*786 FILLER_2_265
*787 FILLER_2_277
*788 FILLER_2_289
*789 FILLER_2_29
*790 FILLER_2_297
*791 FILLER_2_3
*792 FILLER_2_47
*793 FILLER_2_59
*794 FILLER_2_63
*795 FILLER_2_71
*796 FILLER_2_83
*797 FILLER_2_85
*798 FILLER_2_97
*799 FILLER_30_109
*800 FILLER_30_121
*801 FILLER_30_133
*802 FILLER_30_139
*803 FILLER_30_141
*804 FILLER_30_15
*805 FILLER_30_153
*806 FILLER_30_165
*807 FILLER_30_177
*808 FILLER_30_189
*809 FILLER_30_195
*810 FILLER_30_197
*811 FILLER_30_209
*812 FILLER_30_221
*813 FILLER_30_233
*814 FILLER_30_245
*815 FILLER_30_251
*816 FILLER_30_253
*817 FILLER_30_265
*818 FILLER_30_27
*819 FILLER_30_277
*820 FILLER_30_289
*821 FILLER_30_29
*822 FILLER_30_297
*823 FILLER_30_3
*824 FILLER_30_41
*825 FILLER_30_53
*826 FILLER_30_65
*827 FILLER_30_77
*828 FILLER_30_83
*829 FILLER_30_85
*830 FILLER_30_97
*831 FILLER_31_105
*832 FILLER_31_111
*833 FILLER_31_113
*834 FILLER_31_125
*835 FILLER_31_137
*836 FILLER_31_149
*837 FILLER_31_15
*838 FILLER_31_161
*839 FILLER_31_167
*840 FILLER_31_169
*841 FILLER_31_181
*842 FILLER_31_193
*843 FILLER_31_205
*844 FILLER_31_21
*845 FILLER_31_217
*846 FILLER_31_223
*847 FILLER_31_225
*848 FILLER_31_237
*849 FILLER_31_249
*850 FILLER_31_25
*851 FILLER_31_261
*852 FILLER_31_273
*853 FILLER_31_279
*854 FILLER_31_281
*855 FILLER_31_293
*856 FILLER_31_3
*857 FILLER_31_37
*858 FILLER_31_49
*859 FILLER_31_55
*860 FILLER_31_57
*861 FILLER_31_69
*862 FILLER_31_81
*863 FILLER_31_93
*864 FILLER_32_109
*865 FILLER_32_121
*866 FILLER_32_133
*867 FILLER_32_139
*868 FILLER_32_141
*869 FILLER_32_15
*870 FILLER_32_153
*871 FILLER_32_165
*872 FILLER_32_177
*873 FILLER_32_189
*874 FILLER_32_195
*875 FILLER_32_197
*876 FILLER_32_209
*877 FILLER_32_221
*878 FILLER_32_233
*879 FILLER_32_245
*880 FILLER_32_251
*881 FILLER_32_253
*882 FILLER_32_265
*883 FILLER_32_27
*884 FILLER_32_277
*885 FILLER_32_289
*886 FILLER_32_29
*887 FILLER_32_297
*888 FILLER_32_3
*889 FILLER_32_41
*890 FILLER_32_53
*891 FILLER_32_65
*892 FILLER_32_77
*893 FILLER_32_83
*894 FILLER_32_85
*895 FILLER_32_97
*896 FILLER_33_105
*897 FILLER_33_111
*898 FILLER_33_113
*899 FILLER_33_125
*900 FILLER_33_137
*901 FILLER_33_149
*902 FILLER_33_15
*903 FILLER_33_161
*904 FILLER_33_167
*905 FILLER_33_169
*906 FILLER_33_181
*907 FILLER_33_193
*908 FILLER_33_205
*909 FILLER_33_217
*910 FILLER_33_223
*911 FILLER_33_225
*912 FILLER_33_237
*913 FILLER_33_249
*914 FILLER_33_261
*915 FILLER_33_27
*916 FILLER_33_273
*917 FILLER_33_279
*918 FILLER_33_281
*919 FILLER_33_293
*920 FILLER_33_3
*921 FILLER_33_39
*922 FILLER_33_51
*923 FILLER_33_55
*924 FILLER_33_57
*925 FILLER_33_69
*926 FILLER_33_81
*927 FILLER_33_93
*928 FILLER_34_109
*929 FILLER_34_121
*930 FILLER_34_133
*931 FILLER_34_139
*932 FILLER_34_141
*933 FILLER_34_15
*934 FILLER_34_153
*935 FILLER_34_165
*936 FILLER_34_177
*937 FILLER_34_189
*938 FILLER_34_195
*939 FILLER_34_197
*940 FILLER_34_209
*941 FILLER_34_221
*942 FILLER_34_233
*943 FILLER_34_245
*944 FILLER_34_251
*945 FILLER_34_253
*946 FILLER_34_265
*947 FILLER_34_27
*948 FILLER_34_277
*949 FILLER_34_289
*950 FILLER_34_29
*951 FILLER_34_297
*952 FILLER_34_3
*953 FILLER_34_41
*954 FILLER_34_53
*955 FILLER_34_65
*956 FILLER_34_77
*957 FILLER_34_83
*958 FILLER_34_85
*959 FILLER_34_97
*960 FILLER_35_105
*961 FILLER_35_111
*962 FILLER_35_113
*963 FILLER_35_125
*964 FILLER_35_137
*965 FILLER_35_149
*966 FILLER_35_15
*967 FILLER_35_161
*968 FILLER_35_167
*969 FILLER_35_169
*970 FILLER_35_181
*971 FILLER_35_193
*972 FILLER_35_205
*973 FILLER_35_217
*974 FILLER_35_223
*975 FILLER_35_225
*976 FILLER_35_237
*977 FILLER_35_249
*978 FILLER_35_261
*979 FILLER_35_27
*980 FILLER_35_273
*981 FILLER_35_279
*982 FILLER_35_281
*983 FILLER_35_293
*984 FILLER_35_3
*985 FILLER_35_39
*986 FILLER_35_51
*987 FILLER_35_55
*988 FILLER_35_57
*989 FILLER_35_69
*990 FILLER_35_81
*991 FILLER_35_93
*992 FILLER_36_109
*993 FILLER_36_121
*994 FILLER_36_133
*995 FILLER_36_139
*996 FILLER_36_141
*997 FILLER_36_15
*998 FILLER_36_153
*999 FILLER_36_165
*1000 FILLER_36_177
*1001 FILLER_36_189
*1002 FILLER_36_195
*1003 FILLER_36_197
*1004 FILLER_36_209
*1005 FILLER_36_221
*1006 FILLER_36_233
*1007 FILLER_36_245
*1008 FILLER_36_251
*1009 FILLER_36_253
*1010 FILLER_36_265
*1011 FILLER_36_27
*1012 FILLER_36_277
*1013 FILLER_36_289
*1014 FILLER_36_29
*1015 FILLER_36_297
*1016 FILLER_36_3
*1017 FILLER_36_41
*1018 FILLER_36_53
*1019 FILLER_36_65
*1020 FILLER_36_77
*1021 FILLER_36_83
*1022 FILLER_36_85
*1023 FILLER_36_97
*1024 FILLER_37_105
*1025 FILLER_37_111
*1026 FILLER_37_113
*1027 FILLER_37_125
*1028 FILLER_37_137
*1029 FILLER_37_149
*1030 FILLER_37_15
*1031 FILLER_37_161
*1032 FILLER_37_167
*1033 FILLER_37_169
*1034 FILLER_37_181
*1035 FILLER_37_193
*1036 FILLER_37_205
*1037 FILLER_37_217
*1038 FILLER_37_223
*1039 FILLER_37_225
*1040 FILLER_37_237
*1041 FILLER_37_249
*1042 FILLER_37_261
*1043 FILLER_37_27
*1044 FILLER_37_273
*1045 FILLER_37_279
*1046 FILLER_37_281
*1047 FILLER_37_293
*1048 FILLER_37_3
*1049 FILLER_37_39
*1050 FILLER_37_51
*1051 FILLER_37_55
*1052 FILLER_37_57
*1053 FILLER_37_69
*1054 FILLER_37_81
*1055 FILLER_37_93
*1056 FILLER_38_109
*1057 FILLER_38_121
*1058 FILLER_38_133
*1059 FILLER_38_139
*1060 FILLER_38_141
*1061 FILLER_38_15
*1062 FILLER_38_153
*1063 FILLER_38_165
*1064 FILLER_38_177
*1065 FILLER_38_189
*1066 FILLER_38_195
*1067 FILLER_38_197
*1068 FILLER_38_209
*1069 FILLER_38_221
*1070 FILLER_38_233
*1071 FILLER_38_245
*1072 FILLER_38_251
*1073 FILLER_38_253
*1074 FILLER_38_265
*1075 FILLER_38_27
*1076 FILLER_38_277
*1077 FILLER_38_289
*1078 FILLER_38_29
*1079 FILLER_38_297
*1080 FILLER_38_3
*1081 FILLER_38_41
*1082 FILLER_38_53
*1083 FILLER_38_65
*1084 FILLER_38_77
*1085 FILLER_38_83
*1086 FILLER_38_85
*1087 FILLER_38_97
*1088 FILLER_39_105
*1089 FILLER_39_111
*1090 FILLER_39_113
*1091 FILLER_39_125
*1092 FILLER_39_137
*1093 FILLER_39_149
*1094 FILLER_39_15
*1095 FILLER_39_161
*1096 FILLER_39_167
*1097 FILLER_39_169
*1098 FILLER_39_181
*1099 FILLER_39_193
*1100 FILLER_39_205
*1101 FILLER_39_217
*1102 FILLER_39_223
*1103 FILLER_39_225
*1104 FILLER_39_237
*1105 FILLER_39_249
*1106 FILLER_39_261
*1107 FILLER_39_27
*1108 FILLER_39_273
*1109 FILLER_39_279
*1110 FILLER_39_281
*1111 FILLER_39_293
*1112 FILLER_39_3
*1113 FILLER_39_39
*1114 FILLER_39_51
*1115 FILLER_39_55
*1116 FILLER_39_57
*1117 FILLER_39_69
*1118 FILLER_39_81
*1119 FILLER_39_93
*1120 FILLER_3_105
*1121 FILLER_3_111
*1122 FILLER_3_113
*1123 FILLER_3_125
*1124 FILLER_3_137
*1125 FILLER_3_149
*1126 FILLER_3_161
*1127 FILLER_3_167
*1128 FILLER_3_169
*1129 FILLER_3_181
*1130 FILLER_3_193
*1131 FILLER_3_205
*1132 FILLER_3_217
*1133 FILLER_3_22
*1134 FILLER_3_223
*1135 FILLER_3_225
*1136 FILLER_3_237
*1137 FILLER_3_249
*1138 FILLER_3_261
*1139 FILLER_3_273
*1140 FILLER_3_279
*1141 FILLER_3_281
*1142 FILLER_3_293
*1143 FILLER_3_3
*1144 FILLER_3_46
*1145 FILLER_3_54
*1146 FILLER_3_57
*1147 FILLER_3_69
*1148 FILLER_3_81
*1149 FILLER_3_93
*1150 FILLER_40_109
*1151 FILLER_40_121
*1152 FILLER_40_133
*1153 FILLER_40_139
*1154 FILLER_40_141
*1155 FILLER_40_15
*1156 FILLER_40_153
*1157 FILLER_40_165
*1158 FILLER_40_177
*1159 FILLER_40_189
*1160 FILLER_40_195
*1161 FILLER_40_197
*1162 FILLER_40_209
*1163 FILLER_40_221
*1164 FILLER_40_233
*1165 FILLER_40_245
*1166 FILLER_40_251
*1167 FILLER_40_253
*1168 FILLER_40_265
*1169 FILLER_40_27
*1170 FILLER_40_277
*1171 FILLER_40_289
*1172 FILLER_40_29
*1173 FILLER_40_297
*1174 FILLER_40_3
*1175 FILLER_40_41
*1176 FILLER_40_53
*1177 FILLER_40_65
*1178 FILLER_40_77
*1179 FILLER_40_83
*1180 FILLER_40_85
*1181 FILLER_40_97
*1182 FILLER_41_105
*1183 FILLER_41_111
*1184 FILLER_41_113
*1185 FILLER_41_125
*1186 FILLER_41_137
*1187 FILLER_41_149
*1188 FILLER_41_15
*1189 FILLER_41_161
*1190 FILLER_41_167
*1191 FILLER_41_169
*1192 FILLER_41_181
*1193 FILLER_41_193
*1194 FILLER_41_205
*1195 FILLER_41_217
*1196 FILLER_41_223
*1197 FILLER_41_225
*1198 FILLER_41_237
*1199 FILLER_41_249
*1200 FILLER_41_261
*1201 FILLER_41_27
*1202 FILLER_41_273
*1203 FILLER_41_279
*1204 FILLER_41_281
*1205 FILLER_41_293
*1206 FILLER_41_3
*1207 FILLER_41_39
*1208 FILLER_41_51
*1209 FILLER_41_55
*1210 FILLER_41_57
*1211 FILLER_41_69
*1212 FILLER_41_81
*1213 FILLER_41_93
*1214 FILLER_42_109
*1215 FILLER_42_121
*1216 FILLER_42_133
*1217 FILLER_42_139
*1218 FILLER_42_141
*1219 FILLER_42_15
*1220 FILLER_42_153
*1221 FILLER_42_165
*1222 FILLER_42_177
*1223 FILLER_42_189
*1224 FILLER_42_195
*1225 FILLER_42_197
*1226 FILLER_42_209
*1227 FILLER_42_221
*1228 FILLER_42_233
*1229 FILLER_42_245
*1230 FILLER_42_251
*1231 FILLER_42_253
*1232 FILLER_42_265
*1233 FILLER_42_27
*1234 FILLER_42_277
*1235 FILLER_42_289
*1236 FILLER_42_29
*1237 FILLER_42_297
*1238 FILLER_42_3
*1239 FILLER_42_41
*1240 FILLER_42_53
*1241 FILLER_42_65
*1242 FILLER_42_77
*1243 FILLER_42_83
*1244 FILLER_42_85
*1245 FILLER_42_97
*1246 FILLER_43_105
*1247 FILLER_43_111
*1248 FILLER_43_113
*1249 FILLER_43_125
*1250 FILLER_43_137
*1251 FILLER_43_149
*1252 FILLER_43_15
*1253 FILLER_43_161
*1254 FILLER_43_167
*1255 FILLER_43_169
*1256 FILLER_43_181
*1257 FILLER_43_193
*1258 FILLER_43_205
*1259 FILLER_43_217
*1260 FILLER_43_223
*1261 FILLER_43_225
*1262 FILLER_43_237
*1263 FILLER_43_249
*1264 FILLER_43_261
*1265 FILLER_43_27
*1266 FILLER_43_273
*1267 FILLER_43_279
*1268 FILLER_43_281
*1269 FILLER_43_293
*1270 FILLER_43_3
*1271 FILLER_43_39
*1272 FILLER_43_51
*1273 FILLER_43_55
*1274 FILLER_43_57
*1275 FILLER_43_69
*1276 FILLER_43_81
*1277 FILLER_43_93
*1278 FILLER_44_109
*1279 FILLER_44_121
*1280 FILLER_44_133
*1281 FILLER_44_139
*1282 FILLER_44_141
*1283 FILLER_44_15
*1284 FILLER_44_153
*1285 FILLER_44_165
*1286 FILLER_44_177
*1287 FILLER_44_189
*1288 FILLER_44_195
*1289 FILLER_44_197
*1290 FILLER_44_209
*1291 FILLER_44_221
*1292 FILLER_44_233
*1293 FILLER_44_245
*1294 FILLER_44_251
*1295 FILLER_44_253
*1296 FILLER_44_265
*1297 FILLER_44_27
*1298 FILLER_44_277
*1299 FILLER_44_289
*1300 FILLER_44_29
*1301 FILLER_44_297
*1302 FILLER_44_3
*1303 FILLER_44_41
*1304 FILLER_44_53
*1305 FILLER_44_65
*1306 FILLER_44_77
*1307 FILLER_44_83
*1308 FILLER_44_85
*1309 FILLER_44_97
*1310 FILLER_45_105
*1311 FILLER_45_111
*1312 FILLER_45_113
*1313 FILLER_45_125
*1314 FILLER_45_137
*1315 FILLER_45_149
*1316 FILLER_45_15
*1317 FILLER_45_161
*1318 FILLER_45_167
*1319 FILLER_45_169
*1320 FILLER_45_181
*1321 FILLER_45_193
*1322 FILLER_45_205
*1323 FILLER_45_217
*1324 FILLER_45_223
*1325 FILLER_45_225
*1326 FILLER_45_237
*1327 FILLER_45_249
*1328 FILLER_45_261
*1329 FILLER_45_27
*1330 FILLER_45_273
*1331 FILLER_45_279
*1332 FILLER_45_281
*1333 FILLER_45_293
*1334 FILLER_45_3
*1335 FILLER_45_39
*1336 FILLER_45_51
*1337 FILLER_45_55
*1338 FILLER_45_57
*1339 FILLER_45_69
*1340 FILLER_45_81
*1341 FILLER_45_93
*1342 FILLER_46_109
*1343 FILLER_46_121
*1344 FILLER_46_133
*1345 FILLER_46_139
*1346 FILLER_46_141
*1347 FILLER_46_15
*1348 FILLER_46_153
*1349 FILLER_46_165
*1350 FILLER_46_177
*1351 FILLER_46_189
*1352 FILLER_46_195
*1353 FILLER_46_197
*1354 FILLER_46_209
*1355 FILLER_46_221
*1356 FILLER_46_233
*1357 FILLER_46_245
*1358 FILLER_46_251
*1359 FILLER_46_253
*1360 FILLER_46_265
*1361 FILLER_46_27
*1362 FILLER_46_277
*1363 FILLER_46_289
*1364 FILLER_46_29
*1365 FILLER_46_297
*1366 FILLER_46_3
*1367 FILLER_46_41
*1368 FILLER_46_53
*1369 FILLER_46_65
*1370 FILLER_46_77
*1371 FILLER_46_83
*1372 FILLER_46_85
*1373 FILLER_46_97
*1374 FILLER_47_105
*1375 FILLER_47_111
*1376 FILLER_47_113
*1377 FILLER_47_125
*1378 FILLER_47_137
*1379 FILLER_47_149
*1380 FILLER_47_15
*1381 FILLER_47_161
*1382 FILLER_47_167
*1383 FILLER_47_169
*1384 FILLER_47_181
*1385 FILLER_47_193
*1386 FILLER_47_205
*1387 FILLER_47_217
*1388 FILLER_47_223
*1389 FILLER_47_225
*1390 FILLER_47_237
*1391 FILLER_47_249
*1392 FILLER_47_261
*1393 FILLER_47_27
*1394 FILLER_47_273
*1395 FILLER_47_279
*1396 FILLER_47_281
*1397 FILLER_47_293
*1398 FILLER_47_3
*1399 FILLER_47_39
*1400 FILLER_47_51
*1401 FILLER_47_55
*1402 FILLER_47_57
*1403 FILLER_47_69
*1404 FILLER_47_81
*1405 FILLER_47_93
*1406 FILLER_48_109
*1407 FILLER_48_121
*1408 FILLER_48_133
*1409 FILLER_48_139
*1410 FILLER_48_141
*1411 FILLER_48_15
*1412 FILLER_48_153
*1413 FILLER_48_165
*1414 FILLER_48_177
*1415 FILLER_48_189
*1416 FILLER_48_195
*1417 FILLER_48_197
*1418 FILLER_48_209
*1419 FILLER_48_221
*1420 FILLER_48_233
*1421 FILLER_48_245
*1422 FILLER_48_251
*1423 FILLER_48_253
*1424 FILLER_48_265
*1425 FILLER_48_27
*1426 FILLER_48_277
*1427 FILLER_48_289
*1428 FILLER_48_29
*1429 FILLER_48_297
*1430 FILLER_48_3
*1431 FILLER_48_41
*1432 FILLER_48_53
*1433 FILLER_48_65
*1434 FILLER_48_77
*1435 FILLER_48_83
*1436 FILLER_48_85
*1437 FILLER_48_97
*1438 FILLER_49_105
*1439 FILLER_49_111
*1440 FILLER_49_113
*1441 FILLER_49_125
*1442 FILLER_49_137
*1443 FILLER_49_149
*1444 FILLER_49_15
*1445 FILLER_49_161
*1446 FILLER_49_167
*1447 FILLER_49_169
*1448 FILLER_49_181
*1449 FILLER_49_193
*1450 FILLER_49_205
*1451 FILLER_49_217
*1452 FILLER_49_223
*1453 FILLER_49_225
*1454 FILLER_49_237
*1455 FILLER_49_249
*1456 FILLER_49_261
*1457 FILLER_49_27
*1458 FILLER_49_273
*1459 FILLER_49_279
*1460 FILLER_49_281
*1461 FILLER_49_293
*1462 FILLER_49_3
*1463 FILLER_49_39
*1464 FILLER_49_51
*1465 FILLER_49_55
*1466 FILLER_49_57
*1467 FILLER_49_69
*1468 FILLER_49_81
*1469 FILLER_49_93
*1470 FILLER_4_109
*1471 FILLER_4_121
*1472 FILLER_4_13
*1473 FILLER_4_133
*1474 FILLER_4_139
*1475 FILLER_4_141
*1476 FILLER_4_153
*1477 FILLER_4_159
*1478 FILLER_4_166
*1479 FILLER_4_178
*1480 FILLER_4_190
*1481 FILLER_4_197
*1482 FILLER_4_209
*1483 FILLER_4_221
*1484 FILLER_4_233
*1485 FILLER_4_245
*1486 FILLER_4_25
*1487 FILLER_4_251
*1488 FILLER_4_253
*1489 FILLER_4_265
*1490 FILLER_4_277
*1491 FILLER_4_289
*1492 FILLER_4_297
*1493 FILLER_4_45
*1494 FILLER_4_57
*1495 FILLER_4_69
*1496 FILLER_4_81
*1497 FILLER_4_85
*1498 FILLER_4_97
*1499 FILLER_50_109
*1500 FILLER_50_121
*1501 FILLER_50_133
*1502 FILLER_50_139
*1503 FILLER_50_141
*1504 FILLER_50_15
*1505 FILLER_50_153
*1506 FILLER_50_165
*1507 FILLER_50_177
*1508 FILLER_50_189
*1509 FILLER_50_195
*1510 FILLER_50_197
*1511 FILLER_50_209
*1512 FILLER_50_221
*1513 FILLER_50_233
*1514 FILLER_50_245
*1515 FILLER_50_251
*1516 FILLER_50_253
*1517 FILLER_50_265
*1518 FILLER_50_27
*1519 FILLER_50_277
*1520 FILLER_50_289
*1521 FILLER_50_29
*1522 FILLER_50_297
*1523 FILLER_50_3
*1524 FILLER_50_41
*1525 FILLER_50_53
*1526 FILLER_50_65
*1527 FILLER_50_77
*1528 FILLER_50_83
*1529 FILLER_50_85
*1530 FILLER_50_97
*1531 FILLER_51_105
*1532 FILLER_51_111
*1533 FILLER_51_113
*1534 FILLER_51_125
*1535 FILLER_51_137
*1536 FILLER_51_149
*1537 FILLER_51_15
*1538 FILLER_51_161
*1539 FILLER_51_167
*1540 FILLER_51_169
*1541 FILLER_51_181
*1542 FILLER_51_193
*1543 FILLER_51_205
*1544 FILLER_51_217
*1545 FILLER_51_223
*1546 FILLER_51_225
*1547 FILLER_51_237
*1548 FILLER_51_249
*1549 FILLER_51_261
*1550 FILLER_51_27
*1551 FILLER_51_273
*1552 FILLER_51_279
*1553 FILLER_51_281
*1554 FILLER_51_293
*1555 FILLER_51_3
*1556 FILLER_51_39
*1557 FILLER_51_51
*1558 FILLER_51_55
*1559 FILLER_51_57
*1560 FILLER_51_69
*1561 FILLER_51_81
*1562 FILLER_51_93
*1563 FILLER_52_109
*1564 FILLER_52_121
*1565 FILLER_52_133
*1566 FILLER_52_139
*1567 FILLER_52_141
*1568 FILLER_52_15
*1569 FILLER_52_153
*1570 FILLER_52_165
*1571 FILLER_52_177
*1572 FILLER_52_189
*1573 FILLER_52_195
*1574 FILLER_52_197
*1575 FILLER_52_209
*1576 FILLER_52_221
*1577 FILLER_52_233
*1578 FILLER_52_245
*1579 FILLER_52_251
*1580 FILLER_52_253
*1581 FILLER_52_265
*1582 FILLER_52_27
*1583 FILLER_52_277
*1584 FILLER_52_289
*1585 FILLER_52_29
*1586 FILLER_52_297
*1587 FILLER_52_3
*1588 FILLER_52_41
*1589 FILLER_52_53
*1590 FILLER_52_65
*1591 FILLER_52_77
*1592 FILLER_52_83
*1593 FILLER_52_85