*SPEF "ieee 1481-1999"
*DESIGN "gregdavill_serv_top"
*DATE "11:11:11 Fri 11 11, 1111"
*VENDOR "OpenRCX"
*PROGRAM "Parallel Extraction"
*VERSION "1.0"
*DESIGN_FLOW "NAME_SCOPE LOCAL" "PIN_CAP NONE"
*DIVIDER /
*DELIMITER :
*BUS_DELIMITER []
*T_UNIT 1 NS
*C_UNIT 1 PF
*R_UNIT 1 OHM
*L_UNIT 1 HENRY

*NAME_MAP
*1 io_in[0]
*2 io_in[1]
*3 io_in[2]
*4 io_in[3]
*5 io_in[4]
*6 io_in[5]
*7 io_in[6]
*8 io_in[7]
*9 io_out[0]
*10 io_out[1]
*11 io_out[2]
*12 net99
*13 net100
*14 net101
*15 net102
*16 net103
*19 _0000_
*20 _0001_
*21 _0002_
*22 _0003_
*23 _0004_
*24 _0005_
*25 _0006_
*26 _0007_
*27 _0008_
*28 _0009_
*29 _0010_
*30 _0011_
*31 _0012_
*32 _0013_
*33 _0014_
*34 _0015_
*35 _0016_
*36 _0017_
*37 _0018_
*38 _0019_
*39 _0020_
*40 _0021_
*41 _0022_
*42 _0023_
*43 _0024_
*44 _0025_
*45 _0026_
*46 _0027_
*47 _0028_
*48 _0029_
*49 _0030_
*50 _0031_
*51 _0032_
*52 _0033_
*53 _0034_
*54 _0035_
*55 _0036_
*56 _0037_
*57 _0038_
*58 _0039_
*59 _0040_
*60 _0041_
*61 _0042_
*62 _0043_
*63 _0044_
*64 _0045_
*65 _0046_
*66 _0047_
*67 _0048_
*68 _0049_
*69 _0050_
*70 _0051_
*71 _0052_
*72 _0053_
*73 _0054_
*74 _0055_
*75 _0056_
*76 _0057_
*77 _0058_
*78 _0059_
*79 _0060_
*80 _0061_
*81 _0062_
*82 _0063_
*83 _0064_
*84 _0065_
*85 _0066_
*86 _0067_
*87 _0068_
*88 _0069_
*89 _0070_
*90 _0071_
*91 _0072_
*92 _0073_
*93 _0074_
*94 _0075_
*95 _0076_
*96 _0077_
*97 _0078_
*98 _0079_
*99 _0080_
*100 _0081_
*101 _0082_
*102 _0083_
*103 _0084_
*104 _0085_
*105 _0086_
*106 _0087_
*107 _0088_
*108 _0089_
*109 _0090_
*110 _0091_
*111 _0092_
*112 _0093_
*113 _0094_
*114 _0095_
*115 _0096_
*116 _0097_
*117 _0098_
*118 _0099_
*119 _0100_
*120 _0101_
*121 _0102_
*122 _0103_
*123 _0104_
*124 _0105_
*125 _0106_
*126 _0107_
*127 _0108_
*128 _0109_
*129 _0110_
*130 _0111_
*131 _0112_
*132 _0113_
*133 _0114_
*134 _0115_
*135 _0116_
*136 _0117_
*137 _0118_
*138 _0119_
*139 _0120_
*140 _0121_
*141 _0122_
*142 _0123_
*143 _0124_
*144 _0125_
*145 _0126_
*146 _0127_
*147 _0128_
*148 _0129_
*149 _0130_
*150 _0131_
*151 _0132_
*152 _0133_
*153 _0134_
*154 _0135_
*155 _0136_
*156 _0137_
*157 _0138_
*158 _0139_
*159 _0140_
*160 _0141_
*161 _0142_
*162 _0143_
*163 _0144_
*164 _0145_
*165 _0146_
*166 _0147_
*167 _0148_
*168 _0149_
*169 _0150_
*170 _0151_
*171 _0152_
*172 _0153_
*173 _0154_
*174 _0155_
*175 _0156_
*176 _0157_
*177 _0158_
*178 _0159_
*179 _0160_
*180 _0161_
*181 _0162_
*182 _0163_
*183 _0164_
*184 _0165_
*185 _0166_
*186 _0167_
*187 _0168_
*188 _0169_
*189 _0170_
*190 _0171_
*191 _0172_
*192 _0173_
*193 _0174_
*194 _0175_
*195 _0176_
*196 _0177_
*197 _0178_
*198 _0179_
*199 _0180_
*200 _0181_
*201 _0182_
*202 _0183_
*203 _0184_
*204 _0185_
*205 _0186_
*206 _0187_
*207 _0188_
*208 _0189_
*209 _0190_
*210 _0191_
*211 _0192_
*212 _0193_
*213 _0194_
*214 _0195_
*215 _0196_
*216 _0197_
*217 _0198_
*218 _0199_
*219 _0200_
*220 _0201_
*221 _0202_
*222 _0203_
*223 _0204_
*224 _0205_
*225 _0206_
*226 _0207_
*227 _0208_
*228 _0209_
*229 _0210_
*230 _0211_
*231 _0212_
*232 _0213_
*233 _0214_
*234 _0215_
*235 _0216_
*236 _0217_
*237 _0218_
*238 _0219_
*239 _0220_
*240 _0221_
*241 _0222_
*242 _0223_
*243 _0224_
*244 _0225_
*245 _0226_
*246 _0227_
*247 _0228_
*248 _0229_
*249 _0230_
*250 _0231_
*251 _0232_
*252 _0233_
*253 _0234_
*254 _0235_
*255 _0236_
*256 _0237_
*257 _0238_
*258 _0239_
*259 _0240_
*260 _0241_
*261 _0242_
*262 _0243_
*263 _0244_
*264 _0245_
*265 _0246_
*266 _0247_
*267 _0248_
*268 _0249_
*269 _0250_
*270 _0251_
*271 _0252_
*272 _0253_
*273 _0254_
*274 _0255_
*275 _0256_
*276 _0257_
*277 _0258_
*278 _0259_
*279 _0260_
*280 _0261_
*281 _0262_
*282 _0263_
*283 _0264_
*284 _0265_
*285 _0266_
*286 _0267_
*287 _0268_
*288 _0269_
*289 _0270_
*290 _0271_
*291 _0272_
*292 _0273_
*293 _0274_
*294 _0275_
*295 _0276_
*296 _0277_
*297 _0278_
*298 _0279_
*299 _0280_
*300 _0281_
*301 _0282_
*302 _0283_
*303 _0284_
*304 _0285_
*305 _0286_
*306 _0287_
*307 _0288_
*308 _0289_
*309 _0290_
*310 _0291_
*311 _0292_
*312 _0293_
*313 _0294_
*314 _0295_
*315 _0296_
*316 _0297_
*317 _0298_
*318 _0299_
*319 _0300_
*320 _0301_
*321 _0302_
*322 _0303_
*323 _0304_
*324 _0305_
*325 _0306_
*326 _0307_
*327 _0308_
*328 _0309_
*329 _0310_
*330 _0311_
*331 _0312_
*332 _0313_
*333 _0314_
*334 _0315_
*335 _0316_
*336 _0317_
*337 _0318_
*338 _0319_
*339 _0320_
*340 _0321_
*341 _0322_
*342 _0323_
*343 _0324_
*344 _0325_
*345 _0326_
*346 _0327_
*347 _0328_
*348 _0329_
*349 _0330_
*350 _0331_
*351 _0332_
*352 _0333_
*353 _0334_
*354 _0335_
*355 _0336_
*356 _0337_
*357 _0338_
*358 _0339_
*359 _0340_
*360 _0341_
*361 _0342_
*362 _0343_
*363 _0344_
*364 _0345_
*365 _0346_
*366 _0347_
*367 _0348_
*368 _0349_
*369 _0350_
*370 _0351_
*371 _0352_
*372 _0353_
*373 _0354_
*374 _0355_
*375 _0356_
*376 _0357_
*377 _0358_
*378 _0359_
*379 _0360_
*380 _0361_
*381 _0362_
*382 _0363_
*383 _0364_
*384 _0365_
*385 _0366_
*386 _0367_
*387 _0368_
*388 _0369_
*389 _0370_
*390 _0371_
*391 _0372_
*392 _0373_
*393 _0374_
*394 _0375_
*395 _0376_
*396 _0377_
*397 _0378_
*398 _0379_
*399 _0380_
*400 _0381_
*401 _0382_
*402 _0383_
*403 _0384_
*404 _0385_
*405 _0386_
*406 _0387_
*407 _0388_
*408 _0389_
*409 _0390_
*410 _0391_
*411 _0392_
*412 _0393_
*413 _0394_
*414 _0395_
*415 _0396_
*416 _0397_
*417 _0398_
*418 _0399_
*419 _0400_
*420 _0401_
*421 _0402_
*422 _0403_
*423 _0404_
*424 _0405_
*425 _0406_
*426 _0407_
*427 _0408_
*428 _0409_
*429 _0410_
*430 _0411_
*431 _0412_
*432 _0413_
*433 _0414_
*434 _0415_
*435 _0416_
*436 _0417_
*437 _0418_
*438 _0419_
*439 _0420_
*440 _0421_
*441 _0422_
*442 _0423_
*443 _0424_
*444 _0425_
*445 _0426_
*446 _0427_
*447 _0428_
*448 _0429_
*449 _0430_
*450 _0431_
*451 _0432_
*452 _0433_
*453 _0434_
*454 _0435_
*455 _0436_
*456 _0437_
*457 _0438_
*458 _0439_
*459 _0440_
*460 _0441_
*461 _0442_
*462 _0443_
*463 _0444_
*464 _0445_
*465 _0446_
*466 _0447_
*467 _0448_
*468 _0449_
*469 _0450_
*470 _0451_
*471 _0452_
*472 _0453_
*473 _0454_
*474 _0455_
*475 _0456_
*476 _0457_
*477 _0458_
*478 _0459_
*479 _0460_
*480 _0461_
*481 _0462_
*482 _0463_
*483 _0464_
*484 _0465_
*485 _0466_
*486 _0467_
*487 _0468_
*488 _0469_
*489 _0470_
*490 _0471_
*491 _0472_
*492 _0473_
*493 _0474_
*494 _0475_
*495 _0476_
*496 _0477_
*497 _0478_
*498 _0479_
*499 _0480_
*500 _0481_
*501 _0482_
*502 _0483_
*503 _0484_
*504 _0485_
*505 _0486_
*506 _0487_
*507 _0488_
*508 _0489_
*509 _0490_
*510 _0491_
*511 _0492_
*512 _0493_
*513 _0494_
*514 _0495_
*515 _0496_
*516 _0497_
*517 _0498_
*518 _0499_
*519 _0500_
*520 _0501_
*521 _0502_
*522 _0503_
*523 _0504_
*524 _0505_
*525 _0506_
*526 _0507_
*527 _0508_
*528 _0509_
*529 _0510_
*530 _0511_
*531 _0512_
*532 _0513_
*533 _0514_
*534 _0515_
*535 _0516_
*536 _0517_
*537 _0518_
*538 _0519_
*539 _0520_
*540 _0521_
*541 _0522_
*542 _0523_
*543 _0524_
*544 _0525_
*545 _0526_
*546 _0527_
*547 _0528_
*548 _0529_
*549 _0530_
*550 _0531_
*551 _0532_
*552 _0533_
*553 _0534_
*554 _0535_
*555 _0536_
*556 _0537_
*557 _0538_
*558 _0539_
*559 _0540_
*560 _0541_
*561 _0542_
*562 _0543_
*563 _0544_
*564 _0545_
*565 _0546_
*566 _0547_
*567 _0548_
*568 _0549_
*569 _0550_
*570 _0551_
*571 _0552_
*572 _0553_
*573 _0554_
*574 _0555_
*575 _0556_
*576 _0557_
*577 _0558_
*578 _0559_
*579 _0560_
*580 _0561_
*581 _0562_
*582 _0563_
*583 _0564_
*584 _0565_
*585 _0566_
*586 _0567_
*587 _0568_
*588 _0569_
*589 _0570_
*590 _0571_
*591 _0572_
*592 _0573_
*593 _0574_
*594 _0575_
*595 _0576_
*596 _0577_
*597 _0578_
*598 _0579_
*599 _0580_
*600 cpu\.alu\.add_cy_r
*601 cpu\.alu\.cmp_r
*602 cpu\.alu\.i_rs1
*603 cpu\.bne_or_bge
*604 cpu\.branch_op
*605 cpu\.bufreg\.c_r
*606 cpu\.bufreg\.data\[10\]
*607 cpu\.bufreg\.data\[11\]
*608 cpu\.bufreg\.data\[12\]
*609 cpu\.bufreg\.data\[13\]
*610 cpu\.bufreg\.data\[14\]
*611 cpu\.bufreg\.data\[15\]
*612 cpu\.bufreg\.data\[16\]
*613 cpu\.bufreg\.data\[17\]
*614 cpu\.bufreg\.data\[18\]
*615 cpu\.bufreg\.data\[19\]
*616 cpu\.bufreg\.data\[20\]
*617 cpu\.bufreg\.data\[21\]
*618 cpu\.bufreg\.data\[22\]
*619 cpu\.bufreg\.data\[23\]
*620 cpu\.bufreg\.data\[24\]
*621 cpu\.bufreg\.data\[25\]
*622 cpu\.bufreg\.data\[26\]
*623 cpu\.bufreg\.data\[27\]
*624 cpu\.bufreg\.data\[28\]
*625 cpu\.bufreg\.data\[29\]
*626 cpu\.bufreg\.data\[2\]
*627 cpu\.bufreg\.data\[30\]
*628 cpu\.bufreg\.data\[31\]
*629 cpu\.bufreg\.data\[3\]
*630 cpu\.bufreg\.data\[4\]
*631 cpu\.bufreg\.data\[5\]
*632 cpu\.bufreg\.data\[6\]
*633 cpu\.bufreg\.data\[7\]
*634 cpu\.bufreg\.data\[8\]
*635 cpu\.bufreg\.data\[9\]
*636 cpu\.bufreg\.i_sh_signed
*637 cpu\.bufreg\.lsb\[0\]
*638 cpu\.bufreg\.lsb\[1\]
*639 cpu\.bufreg2\.dat\[0\]
*640 cpu\.bufreg2\.dat\[10\]
*641 cpu\.bufreg2\.dat\[11\]
*642 cpu\.bufreg2\.dat\[12\]
*643 cpu\.bufreg2\.dat\[13\]
*644 cpu\.bufreg2\.dat\[14\]
*645 cpu\.bufreg2\.dat\[15\]
*646 cpu\.bufreg2\.dat\[16\]
*647 cpu\.bufreg2\.dat\[17\]
*648 cpu\.bufreg2\.dat\[18\]
*649 cpu\.bufreg2\.dat\[19\]
*650 cpu\.bufreg2\.dat\[1\]
*651 cpu\.bufreg2\.dat\[20\]
*652 cpu\.bufreg2\.dat\[21\]
*653 cpu\.bufreg2\.dat\[22\]
*654 cpu\.bufreg2\.dat\[23\]
*655 cpu\.bufreg2\.dat\[24\]
*656 cpu\.bufreg2\.dat\[25\]
*657 cpu\.bufreg2\.dat\[26\]
*658 cpu\.bufreg2\.dat\[27\]
*659 cpu\.bufreg2\.dat\[28\]
*660 cpu\.bufreg2\.dat\[29\]
*661 cpu\.bufreg2\.dat\[2\]
*662 cpu\.bufreg2\.dat\[30\]
*663 cpu\.bufreg2\.dat\[31\]
*664 cpu\.bufreg2\.dat\[3\]
*665 cpu\.bufreg2\.dat\[4\]
*666 cpu\.bufreg2\.dat\[5\]
*667 cpu\.bufreg2\.dat\[6\]
*668 cpu\.bufreg2\.dat\[7\]
*669 cpu\.bufreg2\.dat\[8\]
*670 cpu\.bufreg2\.dat\[9\]
*671 cpu\.bufreg2\.i_cnt_done
*672 cpu\.bufreg2\.i_dat\[0\]
*673 cpu\.bufreg2\.i_dat\[10\]
*674 cpu\.bufreg2\.i_dat\[11\]
*675 cpu\.bufreg2\.i_dat\[12\]
*676 cpu\.bufreg2\.i_dat\[13\]
*677 cpu\.bufreg2\.i_dat\[14\]
*678 cpu\.bufreg2\.i_dat\[15\]
*679 cpu\.bufreg2\.i_dat\[16\]
*680 cpu\.bufreg2\.i_dat\[17\]
*681 cpu\.bufreg2\.i_dat\[18\]
*682 cpu\.bufreg2\.i_dat\[19\]
*683 cpu\.bufreg2\.i_dat\[1\]
*684 cpu\.bufreg2\.i_dat\[20\]
*685 cpu\.bufreg2\.i_dat\[21\]
*686 cpu\.bufreg2\.i_dat\[22\]
*687 cpu\.bufreg2\.i_dat\[23\]
*688 cpu\.bufreg2\.i_dat\[24\]
*689 cpu\.bufreg2\.i_dat\[25\]
*690 cpu\.bufreg2\.i_dat\[26\]
*691 cpu\.bufreg2\.i_dat\[27\]
*692 cpu\.bufreg2\.i_dat\[28\]
*693 cpu\.bufreg2\.i_dat\[29\]
*694 cpu\.bufreg2\.i_dat\[2\]
*695 cpu\.bufreg2\.i_dat\[30\]
*696 cpu\.bufreg2\.i_dat\[31\]
*697 cpu\.bufreg2\.i_dat\[3\]
*698 cpu\.bufreg2\.i_dat\[4\]
*699 cpu\.bufreg2\.i_dat\[5\]
*700 cpu\.bufreg2\.i_dat\[6\]
*701 cpu\.bufreg2\.i_dat\[7\]
*702 cpu\.bufreg2\.i_dat\[8\]
*703 cpu\.bufreg2\.i_dat\[9\]
*704 cpu\.bufreg2\.i_op_b_sel
*705 cpu\.bufreg2\.i_rs2
*706 cpu\.csr_d_sel
*707 cpu\.csr_imm
*708 cpu\.ctrl\.i_jump
*709 cpu\.ctrl\.o_ibus_adr\[0\]
*710 cpu\.ctrl\.o_ibus_adr\[10\]
*711 cpu\.ctrl\.o_ibus_adr\[11\]
*712 cpu\.ctrl\.o_ibus_adr\[12\]
*713 cpu\.ctrl\.o_ibus_adr\[13\]
*714 cpu\.ctrl\.o_ibus_adr\[14\]
*715 cpu\.ctrl\.o_ibus_adr\[15\]
*716 cpu\.ctrl\.o_ibus_adr\[16\]
*717 cpu\.ctrl\.o_ibus_adr\[17\]
*718 cpu\.ctrl\.o_ibus_adr\[18\]
*719 cpu\.ctrl\.o_ibus_adr\[19\]
*720 cpu\.ctrl\.o_ibus_adr\[1\]
*721 cpu\.ctrl\.o_ibus_adr\[20\]
*722 cpu\.ctrl\.o_ibus_adr\[21\]
*723 cpu\.ctrl\.o_ibus_adr\[22\]
*724 cpu\.ctrl\.o_ibus_adr\[23\]
*725 cpu\.ctrl\.o_ibus_adr\[24\]
*726 cpu\.ctrl\.o_ibus_adr\[25\]
*727 cpu\.ctrl\.o_ibus_adr\[26\]
*728 cpu\.ctrl\.o_ibus_adr\[27\]
*729 cpu\.ctrl\.o_ibus_adr\[28\]
*730 cpu\.ctrl\.o_ibus_adr\[29\]
*731 cpu\.ctrl\.o_ibus_adr\[2\]
*732 cpu\.ctrl\.o_ibus_adr\[30\]
*733 cpu\.ctrl\.o_ibus_adr\[31\]
*734 cpu\.ctrl\.o_ibus_adr\[3\]
*735 cpu\.ctrl\.o_ibus_adr\[4\]
*736 cpu\.ctrl\.o_ibus_adr\[5\]
*737 cpu\.ctrl\.o_ibus_adr\[6\]
*738 cpu\.ctrl\.o_ibus_adr\[7\]
*739 cpu\.ctrl\.o_ibus_adr\[8\]
*740 cpu\.ctrl\.o_ibus_adr\[9\]
*741 cpu\.ctrl\.pc_plus_4_cy_r
*742 cpu\.ctrl\.pc_plus_offset_cy_r
*743 cpu\.decode\.co_ebreak
*744 cpu\.decode\.co_mem_word
*745 cpu\.decode\.i_wb_en
*746 cpu\.decode\.opcode\[0\]
*747 cpu\.decode\.opcode\[1\]
*748 cpu\.decode\.opcode\[2\]
*749 cpu\.i_rf_ready
*750 cpu\.i_timer_irq
*751 cpu\.immdec\.imm11_7\[0\]
*752 cpu\.immdec\.imm11_7\[1\]
*753 cpu\.immdec\.imm11_7\[2\]
*754 cpu\.immdec\.imm11_7\[3\]
*755 cpu\.immdec\.imm11_7\[4\]
*756 cpu\.immdec\.imm19_12_20\[0\]
*757 cpu\.immdec\.imm19_12_20\[1\]
*758 cpu\.immdec\.imm19_12_20\[2\]
*759 cpu\.immdec\.imm19_12_20\[3\]
*760 cpu\.immdec\.imm19_12_20\[5\]
*761 cpu\.immdec\.imm19_12_20\[6\]
*762 cpu\.immdec\.imm19_12_20\[7\]
*763 cpu\.immdec\.imm19_12_20\[8\]
*764 cpu\.immdec\.imm24_20\[0\]
*765 cpu\.immdec\.imm24_20\[1\]
*766 cpu\.immdec\.imm24_20\[2\]
*767 cpu\.immdec\.imm24_20\[3\]
*768 cpu\.immdec\.imm24_20\[4\]
*769 cpu\.immdec\.imm30_25\[0\]
*770 cpu\.immdec\.imm30_25\[1\]
*771 cpu\.immdec\.imm30_25\[2\]
*772 cpu\.immdec\.imm30_25\[3\]
*773 cpu\.immdec\.imm30_25\[4\]
*774 cpu\.immdec\.imm30_25\[5\]
*775 cpu\.immdec\.imm31
*776 cpu\.immdec\.imm7
*777 cpu\.mem_bytecnt\[0\]
*778 cpu\.mem_bytecnt\[1\]
*779 cpu\.mem_if\.o_wb_sel\[0\]
*780 cpu\.mem_if\.o_wb_sel\[1\]
*781 cpu\.mem_if\.o_wb_sel\[2\]
*782 cpu\.mem_if\.o_wb_sel\[3\]
*783 cpu\.mem_if\.signbit
*784 cpu\.o_rf_wreq
*785 cpu\.o_wdata0
*786 cpu\.o_wen0
*787 cpu\.state\.ibus_cyc
*788 cpu\.state\.init_done
*789 cpu\.state\.o_cnt\[2\]
*790 cpu\.state\.o_cnt_r\[0\]
*791 cpu\.state\.o_cnt_r\[1\]
*792 cpu\.state\.o_cnt_r\[2\]
*793 cpu\.state\.o_cnt_r\[3\]
*794 cpu\.state\.stage_two_req
*795 net1
*796 net10
*797 net104
*798 net11
*799 net12
*800 net13
*801 net14
*802 net15
*803 net16
*804 net17
*805 net18
*806 net19
*807 net2
*808 net20
*809 net21
*810 net22
*811 net23
*812 net24
*813 net25
*814 net26
*815 net27
*816 net28
*817 net29
*818 net3
*819 net30
*820 net31
*821 net32
*822 net33
*823 net34
*824 net35
*825 net36
*826 net37
*827 net38
*828 net39
*829 net4
*830 net40
*831 net41
*832 net42
*833 net43
*834 net44
*835 net45
*836 net46
*837 net47
*838 net48
*839 net49
*840 net5
*841 net50
*842 net51
*843 net52
*844 net53
*845 net54
*846 net55
*847 net56
*848 net57
*849 net58
*850 net59
*851 net6
*852 net60
*853 net61
*854 net62
*855 net63
*856 net64
*857 net65
*858 net66
*859 net67
*860 net68
*861 net69
*862 net7
*863 net70
*864 net71
*865 net72
*866 net73
*867 net74
*868 net75
*869 net76
*870 net77
*871 net78
*872 net79
*873 net8
*874 net80
*875 net81
*876 net82
*877 net83
*878 net84
*879 net85
*880 net86
*881 net87
*882 net88
*883 net89
*884 net9
*885 net90
*886 net91
*887 net92
*888 net93
*889 net94
*890 net95
*891 net96
*892 net97
*893 net98
*894 u_arbiter\.i_wb_cpu_ack
*895 u_arbiter\.o_wb_cpu_adr\[0\]
*896 u_arbiter\.o_wb_cpu_adr\[10\]
*897 u_arbiter\.o_wb_cpu_adr\[11\]
*898 u_arbiter\.o_wb_cpu_adr\[12\]
*899 u_arbiter\.o_wb_cpu_adr\[13\]
*900 u_arbiter\.o_wb_cpu_adr\[14\]
*901 u_arbiter\.o_wb_cpu_adr\[15\]
*902 u_arbiter\.o_wb_cpu_adr\[16\]
*903 u_arbiter\.o_wb_cpu_adr\[17\]
*904 u_arbiter\.o_wb_cpu_adr\[18\]
*905 u_arbiter\.o_wb_cpu_adr\[19\]
*906 u_arbiter\.o_wb_cpu_adr\[1\]
*907 u_arbiter\.o_wb_cpu_adr\[20\]
*908 u_arbiter\.o_wb_cpu_adr\[21\]
*909 u_arbiter\.o_wb_cpu_adr\[22\]
*910 u_arbiter\.o_wb_cpu_adr\[23\]
*911 u_arbiter\.o_wb_cpu_adr\[24\]
*912 u_arbiter\.o_wb_cpu_adr\[25\]
*913 u_arbiter\.o_wb_cpu_adr\[26\]
*914 u_arbiter\.o_wb_cpu_adr\[27\]
*915 u_arbiter\.o_wb_cpu_adr\[28\]
*916 u_arbiter\.o_wb_cpu_adr\[29\]
*917 u_arbiter\.o_wb_cpu_adr\[2\]
*918 u_arbiter\.o_wb_cpu_adr\[30\]
*919 u_arbiter\.o_wb_cpu_adr\[31\]
*920 u_arbiter\.o_wb_cpu_adr\[3\]
*921 u_arbiter\.o_wb_cpu_adr\[4\]
*922 u_arbiter\.o_wb_cpu_adr\[5\]
*923 u_arbiter\.o_wb_cpu_adr\[6\]
*924 u_arbiter\.o_wb_cpu_adr\[7\]
*925 u_arbiter\.o_wb_cpu_adr\[8\]
*926 u_arbiter\.o_wb_cpu_adr\[9\]
*927 u_arbiter\.o_wb_cpu_cyc
*928 u_arbiter\.o_wb_cpu_we
*929 u_scanchain_local\.clk
*930 u_scanchain_local\.clk_out
*931 u_scanchain_local\.data_out
*932 u_scanchain_local\.data_out_i
*933 u_scanchain_local\.module_data_in\[37\]
*934 u_scanchain_local\.module_data_in\[38\]
*935 u_scanchain_local\.module_data_in\[39\]
*936 u_scanchain_local\.module_data_in\[40\]
*937 u_scanchain_local\.module_data_in\[41\]
*938 u_scanchain_local\.module_data_in\[42\]
*939 u_scanchain_local\.module_data_in\[43\]
*940 u_scanchain_local\.module_data_in\[44\]
*941 u_scanchain_local\.module_data_in\[45\]
*942 u_scanchain_local\.module_data_in\[46\]
*943 u_scanchain_local\.module_data_in\[47\]
*944 u_scanchain_local\.module_data_in\[48\]
*945 u_scanchain_local\.module_data_in\[49\]
*946 u_scanchain_local\.module_data_in\[50\]
*947 u_scanchain_local\.module_data_in\[51\]
*948 u_scanchain_local\.module_data_in\[52\]
*949 u_scanchain_local\.module_data_in\[53\]
*950 u_scanchain_local\.module_data_in\[54\]
*951 u_scanchain_local\.module_data_in\[55\]
*952 u_scanchain_local\.module_data_in\[56\]
*953 u_scanchain_local\.module_data_in\[57\]
*954 u_scanchain_local\.module_data_in\[58\]
*955 u_scanchain_local\.module_data_in\[59\]
*956 u_scanchain_local\.module_data_in\[60\]
*957 u_scanchain_local\.module_data_in\[61\]
*958 u_scanchain_local\.module_data_in\[62\]
*959 u_scanchain_local\.module_data_in\[63\]
*960 u_scanchain_local\.module_data_in\[64\]
*961 u_scanchain_local\.module_data_in\[65\]
*962 u_scanchain_local\.module_data_in\[66\]
*963 u_scanchain_local\.module_data_in\[67\]
*964 u_scanchain_local\.module_data_in\[68\]
*965 u_scanchain_local\.module_data_in\[69\]
*966 u_scanchain_local\.module_data_in\[70\]
*967 u_scanchain_local\.module_data_in\[71\]
*968 u_scanchain_local\.module_data_in\[72\]
*969 u_scanchain_local\.module_data_in\[73\]
*970 u_scanchain_local\.module_data_in\[74\]
*971 u_scanchain_local\.module_data_in\[75\]
*972 u_scanchain_local\.module_data_in\[76\]
*973 u_scanchain_local\.module_data_in\[77\]
*974 u_scanchain_local\.module_data_in\[78\]
*975 u_scanchain_local\.module_data_in\[79\]
*976 u_scanchain_local\.module_data_in\[80\]
*977 u_scanchain_local\.module_data_in\[81\]
*978 u_scanchain_local\.module_data_in\[82\]
*979 u_scanchain_local\.module_data_in\[83\]
*980 u_scanchain_local\.module_data_in\[84\]
*981 u_scanchain_local\.module_data_in\[85\]
*982 u_scanchain_local\.module_data_in\[86\]
*983 u_scanchain_local\.module_data_in\[87\]
*984 u_scanchain_local\.module_data_in\[88\]
*985 u_scanchain_local\.module_data_in\[89\]
*986 u_scanchain_local\.module_data_in\[90\]
*987 u_scanchain_local\.module_data_in\[91\]
*988 u_scanchain_local\.module_data_in\[92\]
*989 u_scanchain_local\.module_data_in\[93\]
*990 u_scanchain_local\.module_data_in\[94\]
*991 u_scanchain_local\.module_data_in\[95\]
*992 u_scanchain_local\.scan_select_out
*993 FILLER_0_109
*994 FILLER_0_113
*995 FILLER_0_136
*996 FILLER_0_157
*997 FILLER_0_165
*998 FILLER_0_169
*999 FILLER_0_177
*1000 FILLER_0_189
*1001 FILLER_0_19
*1002 FILLER_0_195
*1003 FILLER_0_197
*1004 FILLER_0_220
*1005 FILLER_0_225
*1006 FILLER_0_248
*1007 FILLER_0_27
*1008 FILLER_0_274
*1009 FILLER_0_281
*1010 FILLER_0_29
*1011 FILLER_0_293
*1012 FILLER_0_41
*1013 FILLER_0_47
*1014 FILLER_0_52
*1015 FILLER_0_57
*1016 FILLER_0_69
*1017 FILLER_0_74
*1018 FILLER_0_82
*1019 FILLER_0_85
*1020 FILLER_0_97
*1021 FILLER_10_100
*1022 FILLER_10_117
*1023 FILLER_10_123
*1024 FILLER_10_127
*1025 FILLER_10_136
*1026 FILLER_10_150
*1027 FILLER_10_163
*1028 FILLER_10_179
*1029 FILLER_10_191
*1030 FILLER_10_195
*1031 FILLER_10_213
*1032 FILLER_10_220
*1033 FILLER_10_226
*1034 FILLER_10_24
*1035 FILLER_10_248
*1036 FILLER_10_253
*1037 FILLER_10_270
*1038 FILLER_10_29
*1039 FILLER_10_295
*1040 FILLER_10_37
*1041 FILLER_10_45
*1042 FILLER_10_67
*1043 FILLER_10_80
*1044 FILLER_10_85
*1045 FILLER_10_96
*1046 FILLER_11_107
*1047 FILLER_11_111
*1048 FILLER_11_113
*1049 FILLER_11_120
*1050 FILLER_11_14
*1051 FILLER_11_145
*1052 FILLER_11_159
*1053 FILLER_11_167
*1054 FILLER_11_177
*1055 FILLER_11_189
*1056 FILLER_11_195
*1057 FILLER_11_212
*1058 FILLER_11_219
*1059 FILLER_11_223
*1060 FILLER_11_246
*1061 FILLER_11_271
*1062 FILLER_11_279
*1063 FILLER_11_281
*1064 FILLER_11_293
*1065 FILLER_11_37
*1066 FILLER_11_45
*1067 FILLER_11_52
*1068 FILLER_11_6
*1069 FILLER_11_62
*1070 FILLER_11_82
*1071 FILLER_11_95
*1072 FILLER_12_102
*1073 FILLER_12_12
*1074 FILLER_12_127
*1075 FILLER_12_136
*1076 FILLER_12_148
*1077 FILLER_12_166
*1078 FILLER_12_175
*1079 FILLER_12_183
*1080 FILLER_12_192
*1081 FILLER_12_197
*1082 FILLER_12_224
*1083 FILLER_12_232
*1084 FILLER_12_24
*1085 FILLER_12_240
*1086 FILLER_12_253
*1087 FILLER_12_265
*1088 FILLER_12_280
*1089 FILLER_12_292
*1090 FILLER_12_298
*1091 FILLER_12_3
*1092 FILLER_12_32
*1093 FILLER_12_38
*1094 FILLER_12_42
*1095 FILLER_12_54
*1096 FILLER_12_59
*1097 FILLER_12_63
*1098 FILLER_12_67
*1099 FILLER_12_80
*1100 FILLER_12_85
*1101 FILLER_13_103
*1102 FILLER_13_111
*1103 FILLER_13_134
*1104 FILLER_13_142
*1105 FILLER_13_15
*1106 FILLER_13_151
*1107 FILLER_13_161
*1108 FILLER_13_167
*1109 FILLER_13_176
*1110 FILLER_13_182
*1111 FILLER_13_199
*1112 FILLER_13_203
*1113 FILLER_13_21
*1114 FILLER_13_214
*1115 FILLER_13_222
*1116 FILLER_13_225
*1117 FILLER_13_252
*1118 FILLER_13_264
*1119 FILLER_13_274
*1120 FILLER_13_290
*1121 FILLER_13_298
*1122 FILLER_13_3
*1123 FILLER_13_43
*1124 FILLER_13_55
*1125 FILLER_13_73
*1126 FILLER_13_8
*1127 FILLER_13_90
*1128 FILLER_14_100
*1129 FILLER_14_123
*1130 FILLER_14_129
*1131 FILLER_14_136
*1132 FILLER_14_141
*1133 FILLER_14_156
*1134 FILLER_14_165
*1135 FILLER_14_177
*1136 FILLER_14_181
*1137 FILLER_14_19
*1138 FILLER_14_192
*1139 FILLER_14_197
*1140 FILLER_14_207
*1141 FILLER_14_211
*1142 FILLER_14_233
*1143 FILLER_14_248
*1144 FILLER_14_253
*1145 FILLER_14_27
*1146 FILLER_14_270
*1147 FILLER_14_278
*1148 FILLER_14_29
*1149 FILLER_14_295
*1150 FILLER_14_54
*1151 FILLER_14_62
*1152 FILLER_14_72
*1153 FILLER_14_79
*1154 FILLER_14_83
*1155 FILLER_14_85
*1156 FILLER_14_92
*1157 FILLER_15_102
*1158 FILLER_15_110
*1159 FILLER_15_113
*1160 FILLER_15_121
*1161 FILLER_15_141
*1162 FILLER_15_148
*1163 FILLER_15_160
*1164 FILLER_15_172
*1165 FILLER_15_176
*1166 FILLER_15_185
*1167 FILLER_15_194
*1168 FILLER_15_21
*1169 FILLER_15_219
*1170 FILLER_15_223
*1171 FILLER_15_228
*1172 FILLER_15_235
*1173 FILLER_15_241
*1174 FILLER_15_251
*1175 FILLER_15_264
*1176 FILLER_15_276
*1177 FILLER_15_284
*1178 FILLER_15_296
*1179 FILLER_15_34
*1180 FILLER_15_48
*1181 FILLER_15_6
*1182 FILLER_15_78
*1183 FILLER_15_84
*1184 FILLER_15_94
*1185 FILLER_16_107
*1186 FILLER_16_11
*1187 FILLER_16_113
*1188 FILLER_16_135
*1189 FILLER_16_139
*1190 FILLER_16_141
*1191 FILLER_16_150
*1192 FILLER_16_156
*1193 FILLER_16_173
*1194 FILLER_16_184
*1195 FILLER_16_192
*1196 FILLER_16_197
*1197 FILLER_16_213
*1198 FILLER_16_217
*1199 FILLER_16_227
*1200 FILLER_16_24
*1201 FILLER_16_240
*1202 FILLER_16_247
*1203 FILLER_16_251
*1204 FILLER_16_253
*1205 FILLER_16_266
*1206 FILLER_16_290
*1207 FILLER_16_298
*1208 FILLER_16_3
*1209 FILLER_16_32
*1210 FILLER_16_40
*1211 FILLER_16_50
*1212 FILLER_16_58
*1213 FILLER_16_7
*1214 FILLER_16_80
*1215 FILLER_16_85
*1216 FILLER_17_106
*1217 FILLER_17_116
*1218 FILLER_17_12
*1219 FILLER_17_124
*1220 FILLER_17_128
*1221 FILLER_17_136
*1222 FILLER_17_145
*1223 FILLER_17_154
*1224 FILLER_17_161
*1225 FILLER_17_167
*1226 FILLER_17_190
*1227 FILLER_17_198
*1228 FILLER_17_204
*1229 FILLER_17_214
*1230 FILLER_17_222
*1231 FILLER_17_225
*1232 FILLER_17_229
*1233 FILLER_17_246
*1234 FILLER_17_266
*1235 FILLER_17_273
*1236 FILLER_17_279
*1237 FILLER_17_281
*1238 FILLER_17_293
*1239 FILLER_17_32
*1240 FILLER_17_45
*1241 FILLER_17_53
*1242 FILLER_17_57
*1243 FILLER_17_61
*1244 FILLER_17_65
*1245 FILLER_17_78
*1246 FILLER_17_91
*1247 FILLER_17_98
*1248 FILLER_18_112
*1249 FILLER_18_125
*1250 FILLER_18_132
*1251 FILLER_18_150
*1252 FILLER_18_156
*1253 FILLER_18_173
*1254 FILLER_18_187
*1255 FILLER_18_19
*1256 FILLER_18_195
*1257 FILLER_18_197
*1258 FILLER_18_215
*1259 FILLER_18_222
*1260 FILLER_18_228
*1261 FILLER_18_238
*1262 FILLER_18_250
*1263 FILLER_18_253
*1264 FILLER_18_257
*1265 FILLER_18_267
*1266 FILLER_18_27
*1267 FILLER_18_280
*1268 FILLER_18_29
*1269 FILLER_18_293
*1270 FILLER_18_52
*1271 FILLER_18_72
*1272 FILLER_18_79
*1273 FILLER_18_83
*1274 FILLER_18_85
*1275 FILLER_18_92
*1276 FILLER_19_106
*1277 FILLER_19_11
*1278 FILLER_19_113
*1279 FILLER_19_141
*1280 FILLER_19_150
*1281 FILLER_19_154
*1282 FILLER_19_164
*1283 FILLER_19_169
*1284 FILLER_19_17
*1285 FILLER_19_177
*1286 FILLER_19_181
*1287 FILLER_19_203
*1288 FILLER_19_21
*1289 FILLER_19_220
*1290 FILLER_19_228
*1291 FILLER_19_253
*1292 FILLER_19_270
*1293 FILLER_19_278
*1294 FILLER_19_284
*1295 FILLER_19_29
*1296 FILLER_19_296
*1297 FILLER_19_3
*1298 FILLER_19_37
*1299 FILLER_19_44
*1300 FILLER_19_48
*1301 FILLER_19_52
*1302 FILLER_19_61
*1303 FILLER_19_74
*1304 FILLER_19_99
*1305 FILLER_1_100
*1306 FILLER_1_129
*1307 FILLER_1_158
*1308 FILLER_1_166
*1309 FILLER_1_190
*1310 FILLER_1_215
*1311 FILLER_1_223
*1312 FILLER_1_246
*1313 FILLER_1_25
*1314 FILLER_1_271
*1315 FILLER_1_279
*1316 FILLER_1_281
*1317 FILLER_1_293
*1318 FILLER_1_3
*1319 FILLER_1_50
*1320 FILLER_1_73
*1321 FILLER_20_11
*1322 FILLER_20_123
*1323 FILLER_20_132
*1324 FILLER_20_157
*1325 FILLER_20_164
*1326 FILLER_20_189
*1327 FILLER_20_195
*1328 FILLER_20_206
*1329 FILLER_20_212
*1330 FILLER_20_222
*1331 FILLER_20_229
*1332 FILLER_20_24
*1333 FILLER_20_241
*1334 FILLER_20_249
*1335 FILLER_20_253
*1336 FILLER_20_265
*1337 FILLER_20_284
*1338 FILLER_20_296
*1339 FILLER_20_3
*1340 FILLER_20_33
*1341 FILLER_20_47
*1342 FILLER_20_60
*1343 FILLER_20_80
*1344 FILLER_20_85
*1345 FILLER_20_96
*1346 FILLER_21_103
*1347 FILLER_21_111
*1348 FILLER_21_113
*1349 FILLER_21_121
*1350 FILLER_21_125
*1351 FILLER_21_133
*1352 FILLER_21_14
*1353 FILLER_21_143
*1354 FILLER_21_150
*1355 FILLER_21_156
*1356 FILLER_21_160
*1357 FILLER_21_169
*1358 FILLER_21_180
*1359 FILLER_21_184
*1360 FILLER_21_188
*1361 FILLER_21_208
*1362 FILLER_21_215
*1363 FILLER_21_223
*1364 FILLER_21_241
*1365 FILLER_21_254
*1366 FILLER_21_267
*1367 FILLER_21_27
*1368 FILLER_21_275
*1369 FILLER_21_279
*1370 FILLER_21_284
*1371 FILLER_21_296
*1372 FILLER_21_3
*1373 FILLER_21_52
*1374 FILLER_21_65
*1375 FILLER_21_82
*1376 FILLER_21_90
*1377 FILLER_22_108
*1378 FILLER_22_115
*1379 FILLER_22_124
*1380 FILLER_22_136
*1381 FILLER_22_145
*1382 FILLER_22_158
*1383 FILLER_22_162
*1384 FILLER_22_179
*1385 FILLER_22_19
*1386 FILLER_22_192
*1387 FILLER_22_197
*1388 FILLER_22_214
*1389 FILLER_22_223
*1390 FILLER_22_231
*1391 FILLER_22_238
*1392 FILLER_22_247
*1393 FILLER_22_251
*1394 FILLER_22_269
*1395 FILLER_22_27
*1396 FILLER_22_277
*1397 FILLER_22_295
*1398 FILLER_22_38
*1399 FILLER_22_50
*1400 FILLER_22_59
*1401 FILLER_22_63
*1402 FILLER_22_73
*1403 FILLER_22_80
*1404 FILLER_22_95
*1405 FILLER_23_108
*1406 FILLER_23_113
*1407 FILLER_23_12
*1408 FILLER_23_123
*1409 FILLER_23_144
*1410 FILLER_23_158
*1411 FILLER_23_166
*1412 FILLER_23_169
*1413 FILLER_23_177
*1414 FILLER_23_183
*1415 FILLER_23_205
*1416 FILLER_23_214
*1417 FILLER_23_222
*1418 FILLER_23_246
*1419 FILLER_23_253
*1420 FILLER_23_259
*1421 FILLER_23_276
*1422 FILLER_23_281
*1423 FILLER_23_285
*1424 FILLER_23_295
*1425 FILLER_23_3
*1426 FILLER_23_32
*1427 FILLER_23_40
*1428 FILLER_23_50
*1429 FILLER_23_57
*1430 FILLER_23_72
*1431 FILLER_23_80
*1432 FILLER_23_90
*1433 FILLER_23_97
*1434 FILLER_24_10
*1435 FILLER_24_105
*1436 FILLER_24_113
*1437 FILLER_24_127
*1438 FILLER_24_136
*1439 FILLER_24_147
*1440 FILLER_24_158
*1441 FILLER_24_17
*1442 FILLER_24_172
*1443 FILLER_24_180
*1444 FILLER_24_187
*1445 FILLER_24_195
*1446 FILLER_24_197
*1447 FILLER_24_201
*1448 FILLER_24_223
*1449 FILLER_24_231
*1450 FILLER_24_24
*1451 FILLER_24_242
*1452 FILLER_24_250
*1453 FILLER_24_262
*1454 FILLER_24_270
*1455 FILLER_24_280
*1456 FILLER_24_287
*1457 FILLER_24_294
*1458 FILLER_24_298
*1459 FILLER_24_3
*1460 FILLER_24_38
*1461 FILLER_24_46
*1462 FILLER_24_57
*1463 FILLER_24_65
*1464 FILLER_24_73
*1465 FILLER_24_80
*1466 FILLER_24_94
*1467 FILLER_25_104
*1468 FILLER_25_118
*1469 FILLER_25_125
*1470 FILLER_25_131
*1471 FILLER_25_135
*1472 FILLER_25_143
*1473 FILLER_25_151
*1474 FILLER_25_158
*1475 FILLER_25_166
*1476 FILLER_25_173
*1477 FILLER_25_180
*1478 FILLER_25_184
*1479 FILLER_25_190
*1480 FILLER_25_204
*1481 FILLER_25_218
*1482 FILLER_25_225
*1483 FILLER_25_24
*1484 FILLER_25_243
*1485 FILLER_25_268
*1486 FILLER_25_276
*1487 FILLER_25_281
*1488 FILLER_25_285
*1489 FILLER_25_295
*1490 FILLER_25_30
*1491 FILLER_25_47
*1492 FILLER_25_55
*1493 FILLER_25_57
*1494 FILLER_25_61
*1495 FILLER_25_81
*1496 FILLER_25_87
*1497 FILLER_26_108
*1498 FILLER_26_119
*1499 FILLER_26_125
*1500 FILLER_26_136
*1501 FILLER_26_141
*1502 FILLER_26_145
*1503 FILLER_26_153
*1504 FILLER_26_161
*1505 FILLER_26_168
*1506 FILLER_26_177
*1507 FILLER_26_183
*1508 FILLER_26_188
*1509 FILLER_26_197
*1510 FILLER_26_203
*1511 FILLER_26_214
*1512 FILLER_26_22
*1513 FILLER_26_224
*1514 FILLER_26_234
*1515 FILLER_26_241
*1516 FILLER_26_249
*1517 FILLER_26_256
*1518 FILLER_26_262
*1519 FILLER_26_284
*1520 FILLER_26_29
*1521 FILLER_26_296
*1522 FILLER_26_3
*1523 FILLER_26_37
*1524 FILLER_26_41
*1525 FILLER_26_45
*1526 FILLER_26_65
*1527 FILLER_26_71
*1528 FILLER_26_80
*1529 FILLER_26_9
*1530 FILLER_26_95
*1531 FILLER_27_108
*1532 FILLER_27_117
*1533 FILLER_27_12
*1534 FILLER_27_128
*1535 FILLER_27_142
*1536 FILLER_27_154
*1537 FILLER_27_16
*1538 FILLER_27_164
*1539 FILLER_27_176
*1540 FILLER_27_186
*1541 FILLER_27_194
*1542 FILLER_27_20
*1543 FILLER_27_212
*1544 FILLER_27_219
*1545 FILLER_27_223
*1546 FILLER_27_228
*1547 FILLER_27_232
*1548 FILLER_27_254
*1549 FILLER_27_263
*1550 FILLER_27_276
*1551 FILLER_27_281
*1552 FILLER_27_288
*1553 FILLER_27_295
*1554 FILLER_27_45
*1555 FILLER_27_52
*1556 FILLER_27_57
*1557 FILLER_27_67
*1558 FILLER_27_80
*1559 FILLER_27_94
*1560 FILLER_28_109
*1561 FILLER_28_124
*1562 FILLER_28_136
*1563 FILLER_28_141
*1564 FILLER_28_145
*1565 FILLER_28_153
*1566 FILLER_28_160
*1567 FILLER_28_172
*1568 FILLER_28_180
*1569 FILLER_28_188
*1570 FILLER_28_19
*1571 FILLER_28_204
*1572 FILLER_28_213
*1573 FILLER_28_242
*1574 FILLER_28_250
*1575 FILLER_28_269
*1576 FILLER_28_27
*1577 FILLER_28_277
*1578 FILLER_28_295
*1579 FILLER_28_38
*1580 FILLER_28_42
*1581 FILLER_28_52
*1582 FILLER_28_72
*1583 FILLER_28_79
*1584 FILLER_28_83
*1585 FILLER_28_95
*1586 FILLER_29_10
*1587 FILLER_29_108
*1588 FILLER_29_113
*1589 FILLER_29_122
*1590 FILLER_29_130
*1591 FILLER_29_139