*SPEF "ieee 1481-1999"
*DESIGN "gregdavill_clock_top"
*DATE "11:11:11 Fri 11 11, 1111"
*VENDOR "OpenRCX"
*PROGRAM "Parallel Extraction"
*VERSION "1.0"
*DESIGN_FLOW "NAME_SCOPE LOCAL" "PIN_CAP NONE"
*DIVIDER /
*DELIMITER :
*BUS_DELIMITER []
*T_UNIT 1 NS
*C_UNIT 1 PF
*R_UNIT 1 OHM
*L_UNIT 1 HENRY

*NAME_MAP
*1 io_in[0]
*2 io_in[1]
*3 io_in[2]
*4 io_in[3]
*5 io_in[4]
*6 io_in[5]
*7 io_in[6]
*8 io_in[7]
*9 io_out[0]
*10 io_out[1]
*11 io_out[2]
*12 net4
*13 net5
*14 net6
*15 net7
*16 net8
*19 _000_
*20 _001_
*21 _002_
*22 _003_
*23 _004_
*24 _005_
*25 _006_
*26 _007_
*27 _008_
*28 _009_
*29 _010_
*30 _011_
*31 _012_
*32 _013_
*33 _014_
*34 _015_
*35 _016_
*36 _017_
*37 _018_
*38 _019_
*39 _020_
*40 _021_
*41 _022_
*42 _023_
*43 _024_
*44 _025_
*45 _026_
*46 _027_
*47 _028_
*48 _029_
*49 _030_
*50 _031_
*51 _032_
*52 _033_
*53 _034_
*54 _035_
*55 _036_
*56 _037_
*57 _038_
*58 _039_
*59 _040_
*60 _041_
*61 _042_
*62 _043_
*63 _044_
*64 _045_
*65 _046_
*66 _047_
*67 _048_
*68 _049_
*69 _050_
*70 _051_
*71 _052_
*72 _053_
*73 _054_
*74 _055_
*75 _056_
*76 _057_
*77 _058_
*78 _059_
*79 _060_
*80 _061_
*81 _062_
*82 _063_
*83 _064_
*84 _065_
*85 _066_
*86 _067_
*87 _068_
*88 _069_
*89 _070_
*90 _071_
*91 _072_
*92 _073_
*93 _074_
*94 _075_
*95 _076_
*96 _077_
*97 _078_
*98 _079_
*99 _080_
*100 _081_
*101 _082_
*102 _083_
*103 _084_
*104 _085_
*105 _086_
*106 _087_
*107 _088_
*108 _089_
*109 _090_
*110 _091_
*111 _092_
*112 _093_
*113 _094_
*114 _095_
*115 _096_
*116 _097_
*117 _098_
*118 _099_
*119 _100_
*120 _101_
*121 _102_
*122 _103_
*123 _104_
*124 _105_
*125 _106_
*126 _107_
*127 _108_
*128 _109_
*129 _110_
*130 _111_
*131 _112_
*132 _113_
*133 _114_
*134 _115_
*135 _116_
*136 _117_
*137 _118_
*138 _119_
*139 _120_
*140 _121_
*141 _122_
*142 _123_
*143 _124_
*144 _125_
*145 _126_
*146 _127_
*147 _128_
*148 _129_
*149 _130_
*150 _131_
*151 _132_
*152 _133_
*153 _134_
*154 _135_
*155 _136_
*156 _137_
*157 _138_
*158 _139_
*159 _140_
*160 _141_
*161 _142_
*162 _143_
*163 _144_
*164 _145_
*165 _146_
*166 _147_
*167 _148_
*168 _149_
*169 _150_
*170 _151_
*171 _152_
*172 _153_
*173 _154_
*174 _155_
*175 _156_
*176 _157_
*177 _158_
*178 _159_
*179 _160_
*180 _161_
*181 _162_
*182 _163_
*183 _164_
*184 _165_
*185 _166_
*186 _167_
*187 _168_
*188 _169_
*189 _170_
*190 _171_
*191 _172_
*192 _173_
*193 _174_
*194 _175_
*195 _176_
*196 _177_
*197 _178_
*198 _179_
*199 _180_
*200 _181_
*201 _182_
*202 _183_
*203 _184_
*204 _185_
*205 _186_
*206 _187_
*207 _188_
*208 _189_
*209 _190_
*210 _191_
*211 _192_
*212 _193_
*213 _194_
*214 _195_
*215 _196_
*216 _197_
*217 _198_
*218 _199_
*219 _200_
*220 _201_
*221 _202_
*222 _203_
*223 _204_
*224 _205_
*225 _206_
*226 _207_
*227 _208_
*228 _209_
*229 _210_
*230 _211_
*231 _212_
*232 _213_
*233 _214_
*234 _215_
*235 _216_
*236 _217_
*237 _218_
*238 _219_
*239 _220_
*240 _221_
*241 _222_
*242 _223_
*243 _224_
*244 _225_
*245 _226_
*246 _227_
*247 _228_
*248 _229_
*249 _230_
*250 _231_
*251 _232_
*252 _233_
*253 _234_
*254 _235_
*255 _236_
*256 _237_
*257 _238_
*258 _239_
*259 _240_
*260 _241_
*261 _242_
*262 _243_
*263 _244_
*264 _245_
*265 _246_
*266 _247_
*267 _248_
*268 _249_
*269 _250_
*270 _251_
*271 _252_
*272 _253_
*273 _254_
*274 _255_
*275 _256_
*276 _257_
*277 _258_
*278 _259_
*279 clknet_0_io_in[0]
*280 clknet_2_0__leaf_io_in[0]
*281 clknet_2_1__leaf_io_in[0]
*282 clknet_2_2__leaf_io_in[0]
*283 clknet_2_3__leaf_io_in[0]
*284 clock_top\.bcd_hours\.nibble_high\.o_bcd\[0\]
*285 clock_top\.bcd_hours\.nibble_high\.o_bcd\[1\]
*286 clock_top\.bcd_hours\.nibble_high\.o_bcd\[2\]
*287 clock_top\.bcd_hours\.nibble_high\.o_bcd\[3\]
*288 clock_top\.bcd_hours\.nibble_low\.o_bcd\[0\]
*289 clock_top\.bcd_hours\.nibble_low\.o_bcd\[1\]
*290 clock_top\.bcd_hours\.nibble_low\.o_bcd\[2\]
*291 clock_top\.bcd_hours\.nibble_low\.o_bcd\[3\]
*292 clock_top\.bcd_minutes\.nibble_high\.o_bcd\[0\]
*293 clock_top\.bcd_minutes\.nibble_high\.o_bcd\[1\]
*294 clock_top\.bcd_minutes\.nibble_high\.o_bcd\[2\]
*295 clock_top\.bcd_minutes\.nibble_high\.o_bcd\[3\]
*296 clock_top\.bcd_minutes\.nibble_low\.o_bcd\[0\]
*297 clock_top\.bcd_minutes\.nibble_low\.o_bcd\[1\]
*298 clock_top\.bcd_minutes\.nibble_low\.o_bcd\[2\]
*299 clock_top\.bcd_minutes\.nibble_low\.o_bcd\[3\]
*300 clock_top\.bcd_seconds\.nibble_high\.o_bcd\[0\]
*301 clock_top\.bcd_seconds\.nibble_high\.o_bcd\[1\]
*302 clock_top\.bcd_seconds\.nibble_high\.o_bcd\[2\]
*303 clock_top\.bcd_seconds\.nibble_high\.o_bcd\[3\]
*304 clock_top\.bcd_seconds\.nibble_low\.o_bcd\[0\]
*305 clock_top\.bcd_seconds\.nibble_low\.o_bcd\[1\]
*306 clock_top\.bcd_seconds\.nibble_low\.o_bcd\[2\]
*307 clock_top\.bcd_seconds\.nibble_low\.o_bcd\[3\]
*308 clock_top\.ctrl\.counter\[0\]
*309 clock_top\.ctrl\.counter\[1\]
*310 clock_top\.ctrl\.counter\[2\]
*311 clock_top\.ctrl\.o_latch
*312 clock_top\.ctrl\.scaler\[0\]
*313 clock_top\.ctrl\.scaler\[1\]
*314 clock_top\.ctrl\.scaler\[2\]
*315 clock_top\.ctrl\.scaler\[3\]
*316 clock_top\.ctrl\.scaler\[4\]
*317 clock_top\.ctrl\.scaler\[5\]
*318 clock_top\.ctrl\.scaler\[6\]
*319 clock_top\.ctrl\.state\[0\]
*320 clock_top\.ctrl\.state\[1\]
*321 clock_top\.ctrl\.state\[2\]
*322 clock_top\.ctrl\.state\[3\]
*323 clock_top\.hour_inc_en
*324 clock_top\.minute_inc_en
*325 clock_top\.o_bit
*326 clock_top\.o_clk
*327 clock_top\.rise0\.dat_r
*328 clock_top\.rise1\.dat_r
*329 clock_top\.sr\.counter\[1\]
*330 clock_top\.sr\.counter\[2\]
*331 clock_top\.sr\.counter\[3\]
*332 clock_top\.sr\.counter\[4\]
*333 clock_top\.sr\.sr\[0\]
*334 clock_top\.sr\.sr\[1\]
*335 clock_top\.sr\.sr\[2\]
*336 clock_top\.sr\.sr\[3\]
*337 clock_top\.sr\.sr\[4\]
*338 clock_top\.sr\.sr\[5\]
*339 clock_top\.sr\.sr\[6\]
*340 net1
*341 net2
*342 net3
*343 ANTENNA_0
*344 ANTENNA_1
*345 ANTENNA_2
*346 ANTENNA_3
*347 FILLER_0_101
*348 FILLER_0_108
*349 FILLER_0_129
*350 FILLER_0_136
*351 FILLER_0_146
*352 FILLER_0_155
*353 FILLER_0_167
*354 FILLER_0_169
*355 FILLER_0_181
*356 FILLER_0_193
*357 FILLER_0_197
*358 FILLER_0_209
*359 FILLER_0_221
*360 FILLER_0_225
*361 FILLER_0_237
*362 FILLER_0_24
*363 FILLER_0_249
*364 FILLER_0_253
*365 FILLER_0_265
*366 FILLER_0_277
*367 FILLER_0_281
*368 FILLER_0_29
*369 FILLER_0_293
*370 FILLER_0_3
*371 FILLER_0_33
*372 FILLER_0_52
*373 FILLER_0_57
*374 FILLER_0_63
*375 FILLER_0_7
*376 FILLER_0_80
*377 FILLER_10_101
*378 FILLER_10_119
*379 FILLER_10_128
*380 FILLER_10_141
*381 FILLER_10_153
*382 FILLER_10_164
*383 FILLER_10_177
*384 FILLER_10_187
*385 FILLER_10_195
*386 FILLER_10_197
*387 FILLER_10_20
*388 FILLER_10_209
*389 FILLER_10_221
*390 FILLER_10_233
*391 FILLER_10_245
*392 FILLER_10_251
*393 FILLER_10_253
*394 FILLER_10_265
*395 FILLER_10_277
*396 FILLER_10_289
*397 FILLER_10_29
*398 FILLER_10_297
*399 FILLER_10_53
*400 FILLER_10_73
*401 FILLER_10_81
*402 FILLER_11_100
*403 FILLER_11_120
*404 FILLER_11_127
*405 FILLER_11_139
*406 FILLER_11_15
*407 FILLER_11_151
*408 FILLER_11_160
*409 FILLER_11_169
*410 FILLER_11_176
*411 FILLER_11_186
*412 FILLER_11_198
*413 FILLER_11_210
*414 FILLER_11_222
*415 FILLER_11_225
*416 FILLER_11_233
*417 FILLER_11_242
*418 FILLER_11_254
*419 FILLER_11_266
*420 FILLER_11_278
*421 FILLER_11_281
*422 FILLER_11_293
*423 FILLER_11_3
*424 FILLER_11_36
*425 FILLER_11_48
*426 FILLER_11_57
*427 FILLER_11_63
*428 FILLER_11_80
*429 FILLER_12_101
*430 FILLER_12_118
*431 FILLER_12_128
*432 FILLER_12_136
*433 FILLER_12_141
*434 FILLER_12_153
*435 FILLER_12_164
*436 FILLER_12_177
*437 FILLER_12_189
*438 FILLER_12_19
*439 FILLER_12_195
*440 FILLER_12_197
*441 FILLER_12_209
*442 FILLER_12_221
*443 FILLER_12_227
*444 FILLER_12_232
*445 FILLER_12_244
*446 FILLER_12_253
*447 FILLER_12_265
*448 FILLER_12_27
*449 FILLER_12_277
*450 FILLER_12_289
*451 FILLER_12_29
*452 FILLER_12_297
*453 FILLER_12_41
*454 FILLER_12_65
*455 FILLER_12_77
*456 FILLER_12_83
*457 FILLER_13_101
*458 FILLER_13_109
*459 FILLER_13_113
*460 FILLER_13_121
*461 FILLER_13_138
*462 FILLER_13_149
*463 FILLER_13_15
*464 FILLER_13_163
*465 FILLER_13_167
*466 FILLER_13_169
*467 FILLER_13_181
*468 FILLER_13_193
*469 FILLER_13_205
*470 FILLER_13_217
*471 FILLER_13_223
*472 FILLER_13_225
*473 FILLER_13_237
*474 FILLER_13_249
*475 FILLER_13_261
*476 FILLER_13_273
*477 FILLER_13_279
*478 FILLER_13_281
*479 FILLER_13_293
*480 FILLER_13_3
*481 FILLER_13_32
*482 FILLER_13_52
*483 FILLER_13_57
*484 FILLER_13_81
*485 FILLER_14_101
*486 FILLER_14_113
*487 FILLER_14_117
*488 FILLER_14_123
*489 FILLER_14_131
*490 FILLER_14_136
*491 FILLER_14_148
*492 FILLER_14_152
*493 FILLER_14_157
*494 FILLER_14_169
*495 FILLER_14_181
*496 FILLER_14_193
*497 FILLER_14_197
*498 FILLER_14_209
*499 FILLER_14_213
*500 FILLER_14_218
*501 FILLER_14_226
*502 FILLER_14_238
*503 FILLER_14_24
*504 FILLER_14_250
*505 FILLER_14_258
*506 FILLER_14_270
*507 FILLER_14_282
*508 FILLER_14_29
*509 FILLER_14_294
*510 FILLER_14_298
*511 FILLER_14_3
*512 FILLER_14_41
*513 FILLER_14_60
*514 FILLER_14_7
*515 FILLER_14_80
*516 FILLER_15_100
*517 FILLER_15_113
*518 FILLER_15_125
*519 FILLER_15_137
*520 FILLER_15_152
*521 FILLER_15_164
*522 FILLER_15_169
*523 FILLER_15_181
*524 FILLER_15_189
*525 FILLER_15_195
*526 FILLER_15_207
*527 FILLER_15_215
*528 FILLER_15_223
*529 FILLER_15_225
*530 FILLER_15_231
*531 FILLER_15_243
*532 FILLER_15_255
*533 FILLER_15_26
*534 FILLER_15_267
*535 FILLER_15_279
*536 FILLER_15_281
*537 FILLER_15_293
*538 FILLER_15_3
*539 FILLER_15_34
*540 FILLER_15_52
*541 FILLER_15_57
*542 FILLER_15_69
*543 FILLER_15_81
*544 FILLER_15_9
*545 FILLER_16_106
*546 FILLER_16_113
*547 FILLER_16_121
*548 FILLER_16_127
*549 FILLER_16_139
*550 FILLER_16_141
*551 FILLER_16_153
*552 FILLER_16_165
*553 FILLER_16_177
*554 FILLER_16_189
*555 FILLER_16_19
*556 FILLER_16_195
*557 FILLER_16_203
*558 FILLER_16_215
*559 FILLER_16_227
*560 FILLER_16_23
*561 FILLER_16_239
*562 FILLER_16_251
*563 FILLER_16_253
*564 FILLER_16_265
*565 FILLER_16_27
*566 FILLER_16_277
*567 FILLER_16_289
*568 FILLER_16_295
*569 FILLER_16_45
*570 FILLER_16_57
*571 FILLER_16_69
*572 FILLER_16_81
*573 FILLER_16_85
*574 FILLER_16_97
*575 FILLER_17_105
*576 FILLER_17_111
*577 FILLER_17_113
*578 FILLER_17_120
*579 FILLER_17_132
*580 FILLER_17_146
*581 FILLER_17_15
*582 FILLER_17_158
*583 FILLER_17_166
*584 FILLER_17_169
*585 FILLER_17_181
*586 FILLER_17_193
*587 FILLER_17_199
*588 FILLER_17_204
*589 FILLER_17_216
*590 FILLER_17_225
*591 FILLER_17_237
*592 FILLER_17_249
*593 FILLER_17_261
*594 FILLER_17_27
*595 FILLER_17_273
*596 FILLER_17_279
*597 FILLER_17_281
*598 FILLER_17_293
*599 FILLER_17_3
*600 FILLER_17_39
*601 FILLER_17_51
*602 FILLER_17_55
*603 FILLER_17_57
*604 FILLER_17_69
*605 FILLER_17_73
*606 FILLER_17_85
*607 FILLER_17_97
*608 FILLER_18_101
*609 FILLER_18_113
*610 FILLER_18_120
*611 FILLER_18_132
*612 FILLER_18_15
*613 FILLER_18_151
*614 FILLER_18_162
*615 FILLER_18_174
*616 FILLER_18_186
*617 FILLER_18_194
*618 FILLER_18_200
*619 FILLER_18_212
*620 FILLER_18_224
*621 FILLER_18_236
*622 FILLER_18_248
*623 FILLER_18_253
*624 FILLER_18_265
*625 FILLER_18_27
*626 FILLER_18_277
*627 FILLER_18_289
*628 FILLER_18_29
*629 FILLER_18_297
*630 FILLER_18_3
*631 FILLER_18_39
*632 FILLER_18_47
*633 FILLER_18_59
*634 FILLER_18_71
*635 FILLER_18_83
*636 FILLER_18_85
*637 FILLER_19_109
*638 FILLER_19_113
*639 FILLER_19_121
*640 FILLER_19_133
*641 FILLER_19_141
*642 FILLER_19_146
*643 FILLER_19_156
*644 FILLER_19_163
*645 FILLER_19_167
*646 FILLER_19_17
*647 FILLER_19_178
*648 FILLER_19_184
*649 FILLER_19_190
*650 FILLER_19_204
*651 FILLER_19_208
*652 FILLER_19_216
*653 FILLER_19_225
*654 FILLER_19_237
*655 FILLER_19_249
*656 FILLER_19_25
*657 FILLER_19_261
*658 FILLER_19_273
*659 FILLER_19_279
*660 FILLER_19_281
*661 FILLER_19_293
*662 FILLER_19_3
*663 FILLER_19_30
*664 FILLER_19_42
*665 FILLER_19_54
*666 FILLER_19_57
*667 FILLER_19_69
*668 FILLER_19_77
*669 FILLER_19_86
*670 FILLER_19_9
*671 FILLER_19_92
*672 FILLER_19_97
*673 FILLER_1_101
*674 FILLER_1_109
*675 FILLER_1_11
*676 FILLER_1_129
*677 FILLER_1_136
*678 FILLER_1_140
*679 FILLER_1_148
*680 FILLER_1_156
*681 FILLER_1_163
*682 FILLER_1_167
*683 FILLER_1_174
*684 FILLER_1_181
*685 FILLER_1_193
*686 FILLER_1_205
*687 FILLER_1_217
*688 FILLER_1_223
*689 FILLER_1_225
*690 FILLER_1_237
*691 FILLER_1_249
*692 FILLER_1_261
*693 FILLER_1_273
*694 FILLER_1_279
*695 FILLER_1_281
*696 FILLER_1_29
*697 FILLER_1_293
*698 FILLER_1_3
*699 FILLER_1_33
*700 FILLER_1_52
*701 FILLER_1_57
*702 FILLER_1_63
*703 FILLER_1_80
*704 FILLER_1_84
*705 FILLER_20_102
*706 FILLER_20_114
*707 FILLER_20_126
*708 FILLER_20_138
*709 FILLER_20_141
*710 FILLER_20_15
*711 FILLER_20_153
*712 FILLER_20_164
*713 FILLER_20_168
*714 FILLER_20_175
*715 FILLER_20_187
*716 FILLER_20_195
*717 FILLER_20_201
*718 FILLER_20_21
*719 FILLER_20_213
*720 FILLER_20_225
*721 FILLER_20_230
*722 FILLER_20_242
*723 FILLER_20_250
*724 FILLER_20_253
*725 FILLER_20_265
*726 FILLER_20_27
*727 FILLER_20_277
*728 FILLER_20_289
*729 FILLER_20_297
*730 FILLER_20_3
*731 FILLER_20_35
*732 FILLER_20_47
*733 FILLER_20_59
*734 FILLER_20_71
*735 FILLER_20_83
*736 FILLER_20_85
*737 FILLER_21_105
*738 FILLER_21_111
*739 FILLER_21_113
*740 FILLER_21_125
*741 FILLER_21_137
*742 FILLER_21_145
*743 FILLER_21_15
*744 FILLER_21_154
*745 FILLER_21_166
*746 FILLER_21_169
*747 FILLER_21_181
*748 FILLER_21_193
*749 FILLER_21_205
*750 FILLER_21_217
*751 FILLER_21_223
*752 FILLER_21_225
*753 FILLER_21_23
*754 FILLER_21_240
*755 FILLER_21_249
*756 FILLER_21_261
*757 FILLER_21_273
*758 FILLER_21_279
*759 FILLER_21_28
*760 FILLER_21_281
*761 FILLER_21_289
*762 FILLER_21_295
*763 FILLER_21_3
*764 FILLER_21_40
*765 FILLER_21_52
*766 FILLER_21_57
*767 FILLER_21_69
*768 FILLER_21_79
*769 FILLER_21_93
*770 FILLER_22_103
*771 FILLER_22_118
*772 FILLER_22_130
*773 FILLER_22_138
*774 FILLER_22_141
*775 FILLER_22_15
*776 FILLER_22_153
*777 FILLER_22_169
*778 FILLER_22_181
*779 FILLER_22_193
*780 FILLER_22_203
*781 FILLER_22_215
*782 FILLER_22_22
*783 FILLER_22_227
*784 FILLER_22_239
*785 FILLER_22_251
*786 FILLER_22_253
*787 FILLER_22_265
*788 FILLER_22_277
*789 FILLER_22_289
*790 FILLER_22_297
*791 FILLER_22_3
*792 FILLER_22_32
*793 FILLER_22_44
*794 FILLER_22_52
*795 FILLER_22_64
*796 FILLER_22_76
*797 FILLER_22_91
*798 FILLER_23_100
*799 FILLER_23_113
*800 FILLER_23_12
*801 FILLER_23_121
*802 FILLER_23_127
*803 FILLER_23_138
*804 FILLER_23_146
*805 FILLER_23_153
*806 FILLER_23_165
*807 FILLER_23_169
*808 FILLER_23_181
*809 FILLER_23_193
*810 FILLER_23_205
*811 FILLER_23_217
*812 FILLER_23_223
*813 FILLER_23_225
*814 FILLER_23_230
*815 FILLER_23_242
*816 FILLER_23_254
*817 FILLER_23_266
*818 FILLER_23_278
*819 FILLER_23_281
*820 FILLER_23_29
*821 FILLER_23_290
*822 FILLER_23_298
*823 FILLER_23_3
*824 FILLER_23_36
*825 FILLER_23_48
*826 FILLER_23_61
*827 FILLER_23_73
*828 FILLER_23_81
*829 FILLER_23_88
*830 FILLER_24_104
*831 FILLER_24_108
*832 FILLER_24_113
*833 FILLER_24_121
*834 FILLER_24_133
*835 FILLER_24_139
*836 FILLER_24_141
*837 FILLER_24_153
*838 FILLER_24_165
*839 FILLER_24_177
*840 FILLER_24_183
*841 FILLER_24_195
*842 FILLER_24_197
*843 FILLER_24_209
*844 FILLER_24_21
*845 FILLER_24_215
*846 FILLER_24_223
*847 FILLER_24_231
*848 FILLER_24_243
*849 FILLER_24_251
*850 FILLER_24_253
*851 FILLER_24_265
*852 FILLER_24_27
*853 FILLER_24_277
*854 FILLER_24_289
*855 FILLER_24_29
*856 FILLER_24_297
*857 FILLER_24_3
*858 FILLER_24_41
*859 FILLER_24_55
*860 FILLER_24_69
*861 FILLER_24_81
*862 FILLER_24_85
*863 FILLER_24_93
*864 FILLER_25_10
*865 FILLER_25_103
*866 FILLER_25_108
*867 FILLER_25_123
*868 FILLER_25_135
*869 FILLER_25_139
*870 FILLER_25_150
*871 FILLER_25_162
*872 FILLER_25_169
*873 FILLER_25_18
*874 FILLER_25_181
*875 FILLER_25_193
*876 FILLER_25_205
*877 FILLER_25_217
*878 FILLER_25_223
*879 FILLER_25_225
*880 FILLER_25_237
*881 FILLER_25_249
*882 FILLER_25_261
*883 FILLER_25_27
*884 FILLER_25_273
*885 FILLER_25_279
*886 FILLER_25_281
*887 FILLER_25_293
*888 FILLER_25_38
*889 FILLER_25_52
*890 FILLER_25_57
*891 FILLER_25_69
*892 FILLER_25_77
*893 FILLER_25_87
*894 FILLER_25_95
*895 FILLER_26_109
*896 FILLER_26_121
*897 FILLER_26_133
*898 FILLER_26_139
*899 FILLER_26_15
*900 FILLER_26_151
*901 FILLER_26_163
*902 FILLER_26_175
*903 FILLER_26_187
*904 FILLER_26_195
*905 FILLER_26_197
*906 FILLER_26_209
*907 FILLER_26_221
*908 FILLER_26_233
*909 FILLER_26_24
*910 FILLER_26_245
*911 FILLER_26_251
*912 FILLER_26_253
*913 FILLER_26_265
*914 FILLER_26_277
*915 FILLER_26_289
*916 FILLER_26_297
*917 FILLER_26_3
*918 FILLER_26_32
*919 FILLER_26_36
*920 FILLER_26_47
*921 FILLER_26_61
*922 FILLER_26_73
*923 FILLER_26_81
*924 FILLER_26_85
*925 FILLER_26_97
*926 FILLER_27_108
*927 FILLER_27_120
*928 FILLER_27_13
*929 FILLER_27_132
*930 FILLER_27_144
*931 FILLER_27_156
*932 FILLER_27_169
*933 FILLER_27_181
*934 FILLER_27_201
*935 FILLER_27_213
*936 FILLER_27_221
*937 FILLER_27_225
*938 FILLER_27_237
*939 FILLER_27_249
*940 FILLER_27_25
*941 FILLER_27_261
*942 FILLER_27_273
*943 FILLER_27_279
*944 FILLER_27_281
*945 FILLER_27_293
*946 FILLER_27_3
*947 FILLER_27_33
*948 FILLER_27_42
*949 FILLER_27_54
*950 FILLER_27_67
*951 FILLER_27_79
*952 FILLER_27_91
*953 FILLER_27_99
*954 FILLER_28_109
*955 FILLER_28_117
*956 FILLER_28_12
*957 FILLER_28_127
*958 FILLER_28_139
*959 FILLER_28_141
*960 FILLER_28_151
*961 FILLER_28_163
*962 FILLER_28_169
*963 FILLER_28_173
*964 FILLER_28_185
*965 FILLER_28_193
*966 FILLER_28_205
*967 FILLER_28_217
*968 FILLER_28_221
*969 FILLER_28_227
*970 FILLER_28_239
*971 FILLER_28_24
*972 FILLER_28_251
*973 FILLER_28_253
*974 FILLER_28_265
*975 FILLER_28_277
*976 FILLER_28_289
*977 FILLER_28_29
*978 FILLER_28_297
*979 FILLER_28_3
*980 FILLER_28_33
*981 FILLER_28_42
*982 FILLER_28_53
*983 FILLER_28_61
*984 FILLER_28_71
*985 FILLER_28_83
*986 FILLER_28_85
*987 FILLER_28_97
*988 FILLER_29_110
*989 FILLER_29_116
*990 FILLER_29_127
*991 FILLER_29_13
*992 FILLER_29_139
*993 FILLER_29_151
*994 FILLER_29_157
*995 FILLER_29_165
*996 FILLER_29_169
*997 FILLER_29_181
*998 FILLER_29_193
*999 FILLER_29_205
*1000 FILLER_29_217
*1001 FILLER_29_223
*1002 FILLER_29_225
*1003 FILLER_29_237
*1004 FILLER_29_249
*1005 FILLER_29_261
*1006 FILLER_29_273
*1007 FILLER_29_279
*1008 FILLER_29_281
*1009 FILLER_29_293
*1010 FILLER_29_3
*1011 FILLER_29_35
*1012 FILLER_29_43
*1013 FILLER_29_48
*1014 FILLER_29_57
*1015 FILLER_29_69
*1016 FILLER_29_81
*1017 FILLER_29_89
*1018 FILLER_29_98
*1019 FILLER_2_110
*1020 FILLER_2_130
*1021 FILLER_2_138
*1022 FILLER_2_141
*1023 FILLER_2_153
*1024 FILLER_2_165
*1025 FILLER_2_177
*1026 FILLER_2_189
*1027 FILLER_2_19
*1028 FILLER_2_195
*1029 FILLER_2_197
*1030 FILLER_2_207
*1031 FILLER_2_215
*1032 FILLER_2_227
*1033 FILLER_2_239
*1034 FILLER_2_251
*1035 FILLER_2_253
*1036 FILLER_2_265
*1037 FILLER_2_27
*1038 FILLER_2_277
*1039 FILLER_2_289
*1040 FILLER_2_29
*1041 FILLER_2_297
*1042 FILLER_2_49
*1043 FILLER_2_61
*1044 FILLER_2_80
*1045 FILLER_2_85
*1046 FILLER_30_109
*1047 FILLER_30_117
*1048 FILLER_30_121
*1049 FILLER_30_13
*1050 FILLER_30_133
*1051 FILLER_30_139
*1052 FILLER_30_141
*1053 FILLER_30_153
*1054 FILLER_30_165
*1055 FILLER_30_177
*1056 FILLER_30_189
*1057 FILLER_30_195
*1058 FILLER_30_197
*1059 FILLER_30_209
*1060 FILLER_30_221
*1061 FILLER_30_233
*1062 FILLER_30_245
*1063 FILLER_30_25
*1064 FILLER_30_251
*1065 FILLER_30_253
*1066 FILLER_30_265
*1067 FILLER_30_277
*1068 FILLER_30_289
*1069 FILLER_30_29
*1070 FILLER_30_297
*1071 FILLER_30_3
*1072 FILLER_30_37
*1073 FILLER_30_46
*1074 FILLER_30_52
*1075 FILLER_30_59
*1076 FILLER_30_71
*1077 FILLER_30_83
*1078 FILLER_30_85
*1079 FILLER_30_9
*1080 FILLER_30_97
*1081 FILLER_31_111
*1082 FILLER_31_113
*1083 FILLER_31_12
*1084 FILLER_31_125
*1085 FILLER_31_137
*1086 FILLER_31_149
*1087 FILLER_31_161
*1088 FILLER_31_167
*1089 FILLER_31_169
*1090 FILLER_31_181
*1091 FILLER_31_193
*1092 FILLER_31_20
*1093 FILLER_31_205
*1094 FILLER_31_217
*1095 FILLER_31_223
*1096 FILLER_31_225
*1097 FILLER_31_237
*1098 FILLER_31_241
*1099 FILLER_31_253
*1100 FILLER_31_265
*1101 FILLER_31_277
*1102 FILLER_31_28
*1103 FILLER_31_281
*1104 FILLER_31_289
*1105 FILLER_31_297
*1106 FILLER_31_3
*1107 FILLER_31_37
*1108 FILLER_31_43
*1109 FILLER_31_52
*1110 FILLER_31_63
*1111 FILLER_31_75
*1112 FILLER_31_87
*1113 FILLER_31_99
*1114 FILLER_32_109
*1115 FILLER_32_121
*1116 FILLER_32_133
*1117 FILLER_32_139
*1118 FILLER_32_141
*1119 FILLER_32_15
*1120 FILLER_32_153
*1121 FILLER_32_158
*1122 FILLER_32_170
*1123 FILLER_32_182
*1124 FILLER_32_194
*1125 FILLER_32_197
*1126 FILLER_32_209
*1127 FILLER_32_220
*1128 FILLER_32_236
*1129 FILLER_32_248
*1130 FILLER_32_253
*1131 FILLER_32_265
*1132 FILLER_32_27
*1133 FILLER_32_277
*1134 FILLER_32_289
*1135 FILLER_32_29
*1136 FILLER_32_295
*1137 FILLER_32_3
*1138 FILLER_32_34
*1139 FILLER_32_41
*1140 FILLER_32_53
*1141 FILLER_32_63
*1142 FILLER_32_75
*1143 FILLER_32_83
*1144 FILLER_32_85
*1145 FILLER_32_97
*1146 FILLER_33_109
*1147 FILLER_33_113
*1148 FILLER_33_125
*1149 FILLER_33_137
*1150 FILLER_33_149
*1151 FILLER_33_15
*1152 FILLER_33_161
*1153 FILLER_33_167
*1154 FILLER_33_169
*1155 FILLER_33_177
*1156 FILLER_33_185
*1157 FILLER_33_197
*1158 FILLER_33_209
*1159 FILLER_33_221
*1160 FILLER_33_225
*1161 FILLER_33_23
*1162 FILLER_33_237
*1163 FILLER_33_249
*1164 FILLER_33_261
*1165 FILLER_33_269
*1166 FILLER_33_276
*1167 FILLER_33_281
*1168 FILLER_33_289
*1169 FILLER_33_297
*1170 FILLER_33_3
*1171 FILLER_33_30
*1172 FILLER_33_45
*1173 FILLER_33_52
*1174 FILLER_33_61
*1175 FILLER_33_73
*1176 FILLER_33_85
*1177 FILLER_33_97
*1178 FILLER_34_109
*1179 FILLER_34_121
*1180 FILLER_34_132
*1181 FILLER_34_141
*1182 FILLER_34_147
*1183 FILLER_34_156
*1184 FILLER_34_164
*1185 FILLER_34_176
*1186 FILLER_34_18
*1187 FILLER_34_192
*1188 FILLER_34_197
*1189 FILLER_34_209
*1190 FILLER_34_217
*1191 FILLER_34_222
*1192 FILLER_34_234
*1193 FILLER_34_246
*1194 FILLER_34_253
*1195 FILLER_34_26
*1196 FILLER_34_265
*1197 FILLER_34_277
*1198 FILLER_34_289
*1199 FILLER_34_29
*1200 FILLER_34_297
*1201 FILLER_34_3
*1202 FILLER_34_41
*1203 FILLER_34_53
*1204 FILLER_34_65
*1205 FILLER_34_77
*1206 FILLER_34_83
*1207 FILLER_34_85
*1208 FILLER_34_97
*1209 FILLER_35_101
*1210 FILLER_35_109
*1211 FILLER_35_113
*1212 FILLER_35_123
*1213 FILLER_35_134
*1214 FILLER_35_142
*1215 FILLER_35_15
*1216 FILLER_35_151
*1217 FILLER_35_163
*1218 FILLER_35_167
*1219 FILLER_35_169
*1220 FILLER_35_181
*1221 FILLER_35_193
*1222 FILLER_35_205
*1223 FILLER_35_217
*1224 FILLER_35_223
*1225 FILLER_35_234
*1226 FILLER_35_246
*1227 FILLER_35_258
*1228 FILLER_35_27
*1229 FILLER_35_270
*1230 FILLER_35_278
*1231 FILLER_35_281
*1232 FILLER_35_293
*1233 FILLER_35_3
*1234 FILLER_35_43
*1235 FILLER_35_51
*1236 FILLER_35_55
*1237 FILLER_35_61
*1238 FILLER_35_73
*1239 FILLER_35_81
*1240 FILLER_35_89
*1241 FILLER_36_109
*1242 FILLER_36_121
*1243 FILLER_36_127
*1244 FILLER_36_136
*1245 FILLER_36_141
*1246 FILLER_36_15
*1247 FILLER_36_153
*1248 FILLER_36_165
*1249 FILLER_36_177
*1250 FILLER_36_189
*1251 FILLER_36_195
*1252 FILLER_36_197
*1253 FILLER_36_209
*1254 FILLER_36_221
*1255 FILLER_36_233
*1256 FILLER_36_245
*1257 FILLER_36_251
*1258 FILLER_36_253
*1259 FILLER_36_265
*1260 FILLER_36_27
*1261 FILLER_36_277
*1262 FILLER_36_289
*1263 FILLER_36_29
*1264 FILLER_36_295
*1265 FILLER_36_3
*1266 FILLER_36_41
*1267 FILLER_36_57
*1268 FILLER_36_69
*1269 FILLER_36_81
*1270 FILLER_36_85
*1271 FILLER_36_97
*1272 FILLER_37_105
*1273 FILLER_37_111
*1274 FILLER_37_113
*1275 FILLER_37_121
*1276 FILLER_37_133
*1277 FILLER_37_145
*1278 FILLER_37_15
*1279 FILLER_37_157
*1280 FILLER_37_165
*1281 FILLER_37_169
*1282 FILLER_37_181
*1283 FILLER_37_193
*1284 FILLER_37_205
*1285 FILLER_37_217
*1286 FILLER_37_223
*1287 FILLER_37_225
*1288 FILLER_37_237
*1289 FILLER_37_249
*1290 FILLER_37_261
*1291 FILLER_37_273
*1292 FILLER_37_279
*1293 FILLER_37_28
*1294 FILLER_37_281
*1295 FILLER_37_293
*1296 FILLER_37_3
*1297 FILLER_37_40
*1298 FILLER_37_46
*1299 FILLER_37_54
*1300 FILLER_37_57
*1301 FILLER_37_69
*1302 FILLER_37_81
*1303 FILLER_37_93
*1304 FILLER_38_102
*1305 FILLER_38_114
*1306 FILLER_38_122
*1307 FILLER_38_129
*1308 FILLER_38_137
*1309 FILLER_38_141
*1310 FILLER_38_15
*1311 FILLER_38_153
*1312 FILLER_38_165
*1313 FILLER_38_177
*1314 FILLER_38_189
*1315 FILLER_38_195
*1316 FILLER_38_197
*1317 FILLER_38_209
*1318 FILLER_38_219
*1319 FILLER_38_231
*1320 FILLER_38_243
*1321 FILLER_38_251
*1322 FILLER_38_253
*1323 FILLER_38_265
*1324 FILLER_38_27
*1325 FILLER_38_277
*1326 FILLER_38_289
*1327 FILLER_38_29
*1328 FILLER_38_295
*1329 FILLER_38_3
*1330 FILLER_38_41
*1331 FILLER_38_53
*1332 FILLER_38_65
*1333 FILLER_38_73
*1334 FILLER_38_80
*1335 FILLER_38_90
*1336 FILLER_39_105
*1337 FILLER_39_111
*1338 FILLER_39_113
*1339 FILLER_39_125
*1340 FILLER_39_133
*1341 FILLER_39_145
*1342 FILLER_39_15
*1343 FILLER_39_157
*1344 FILLER_39_165
*1345 FILLER_39_169
*1346 FILLER_39_181
*1347 FILLER_39_193
*1348 FILLER_39_205
*1349 FILLER_39_214
*1350 FILLER_39_222
*1351 FILLER_39_225
*1352 FILLER_39_237
*1353 FILLER_39_249
*1354 FILLER_39_261
*1355 FILLER_39_27
*1356 FILLER_39_273
*1357 FILLER_39_279
*1358 FILLER_39_281
*1359 FILLER_39_293
*1360 FILLER_39_3
*1361 FILLER_39_39
*1362 FILLER_39_51
*1363 FILLER_39_55
*1364 FILLER_39_57
*1365 FILLER_39_69
*1366 FILLER_39_81
*1367 FILLER_39_93
*1368 FILLER_3_105
*1369 FILLER_3_111
*1370 FILLER_3_113
*1371 FILLER_3_125
*1372 FILLER_3_129
*1373 FILLER_3_137
*1374 FILLER_3_149
*1375 FILLER_3_15
*1376 FILLER_3_161
*1377 FILLER_3_167
*1378 FILLER_3_169
*1379 FILLER_3_181
*1380 FILLER_3_193
*1381 FILLER_3_205
*1382 FILLER_3_217
*1383 FILLER_3_223
*1384 FILLER_3_225
*1385 FILLER_3_237
*1386 FILLER_3_249
*1387 FILLER_3_261
*1388 FILLER_3_273
*1389 FILLER_3_279
*1390 FILLER_3_281
*1391 FILLER_3_293
*1392 FILLER_3_3
*1393 FILLER_3_36
*1394 FILLER_3_50
*1395 FILLER_3_57
*1396 FILLER_3_69
*1397 FILLER_3_93
*1398 FILLER_40_109
*1399 FILLER_40_117
*1400 FILLER_40_123
*1401 FILLER_40_135
*1402 FILLER_40_139
*1403 FILLER_40_141
*1404 FILLER_40_15
*1405 FILLER_40_153
*1406 FILLER_40_165
*1407 FILLER_40_177
*1408 FILLER_40_189
*1409 FILLER_40_195
*1410 FILLER_40_202
*1411 FILLER_40_214
*1412 FILLER_40_226
*1413 FILLER_40_238
*1414 FILLER_40_250
*1415 FILLER_40_253
*1416 FILLER_40_265
*1417 FILLER_40_27
*1418 FILLER_40_277
*1419 FILLER_40_289
*1420 FILLER_40_29
*1421 FILLER_40_297
*1422 FILLER_40_3
*1423 FILLER_40_41
*1424 FILLER_40_53
*1425 FILLER_40_65
*1426 FILLER_40_77
*1427 FILLER_40_83
*1428 FILLER_40_85
*1429 FILLER_40_97
*1430 FILLER_41_105
*1431 FILLER_41_111
*1432 FILLER_41_113
*1433 FILLER_41_125
*1434 FILLER_41_138
*1435 FILLER_41_15
*1436 FILLER_41_150
*1437 FILLER_41_162
*1438 FILLER_41_169
*1439 FILLER_41_181
*1440 FILLER_41_193
*1441 FILLER_41_205
*1442 FILLER_41_217
*1443 FILLER_41_223
*1444 FILLER_41_225
*1445 FILLER_41_237
*1446 FILLER_41_249
*1447 FILLER_41_261
*1448 FILLER_41_27
*1449 FILLER_41_273
*1450 FILLER_41_279
*1451 FILLER_41_281
*1452 FILLER_41_293
*1453 FILLER_41_3
*1454 FILLER_41_35
*1455 FILLER_41_47
*1456 FILLER_41_55
*1457 FILLER_41_57
*1458 FILLER_41_69
*1459 FILLER_41_81
*1460 FILLER_41_93
*1461 FILLER_42_106
*1462 FILLER_42_118
*1463 FILLER_42_130
*1464 FILLER_42_138
*1465 FILLER_42_141
*1466 FILLER_42_148
*1467 FILLER_42_160
*1468 FILLER_42_168
*1469 FILLER_42_174
*1470 FILLER_42_18
*1471 FILLER_42_186
*1472 FILLER_42_194
*1473 FILLER_42_197
*1474 FILLER_42_209
*1475 FILLER_42_221
*1476 FILLER_42_233
*1477 FILLER_42_245
*1478 FILLER_42_251
*1479 FILLER_42_253
*1480 FILLER_42_26
*1481 FILLER_42_265
*1482 FILLER_42_277
*1483 FILLER_42_289
*1484 FILLER_42_29
*1485 FILLER_42_297
*1486 FILLER_42_41
*1487 FILLER_42_45
*1488 FILLER_42_51
*1489 FILLER_42_6
*1490 FILLER_42_61
*1491 FILLER_42_73
*1492 FILLER_42_81
*1493 FILLER_42_85
*1494 FILLER_43_104
*1495 FILLER_43_113
*1496 FILLER_43_119
*1497 FILLER_43_125
*1498 FILLER_43_137
*1499 FILLER_43_143
*1500 FILLER_43_149
*1501 FILLER_43_15
*1502 FILLER_43_161
*1503 FILLER_43_167
*1504 FILLER_43_169
*1505 FILLER_43_181
*1506 FILLER_43_185
*1507 FILLER_43_197
*1508 FILLER_43_209
*1509 FILLER_43_221
*1510 FILLER_43_225
*1511 FILLER_43_237
*1512 FILLER_43_249
*1513 FILLER_43_261
*1514 FILLER_43_27
*1515 FILLER_43_273
*1516 FILLER_43_279
*1517 FILLER_43_281
*1518 FILLER_43_293
*1519 FILLER_43_3
*1520 FILLER_43_39
*1521 FILLER_43_51
*1522 FILLER_43_55
*1523 FILLER_43_57
*1524 FILLER_43_69
*1525 FILLER_43_81
*1526 FILLER_43_92
*1527 FILLER_44_109
*1528 FILLER_44_123
*1529 FILLER_44_135
*1530 FILLER_44_139
*1531 FILLER_44_141
*1532 FILLER_44_15
*1533 FILLER_44_153
*1534 FILLER_44_160
*1535 FILLER_44_172
*1536 FILLER_44_184
*1537 FILLER_44_197
*1538 FILLER_44_209
*1539 FILLER_44_221
*1540 FILLER_44_233
*1541 FILLER_44_245
*1542 FILLER_44_251
*1543 FILLER_44_253
*1544 FILLER_44_265
*1545 FILLER_44_27
*1546 FILLER_44_277
*1547 FILLER_44_289
*1548 FILLER_44_29
*1549 FILLER_44_297
*1550 FILLER_44_3
*1551 FILLER_44_41
*1552 FILLER_44_53
*1553 FILLER_44_65
*1554 FILLER_44_77
*1555 FILLER_44_83
*1556 FILLER_44_85
*1557 FILLER_44_97
*1558 FILLER_45_110
*1559 FILLER_45_113
*1560 FILLER_45_125
*1561 FILLER_45_137
*1562 FILLER_45_149
*1563 FILLER_45_15
*1564 FILLER_45_161
*1565 FILLER_45_167
*1566 FILLER_45_169
*1567 FILLER_45_181
*1568 FILLER_45_193
*1569 FILLER_45_205
*1570 FILLER_45_217
*1571 FILLER_45_223
*1572 FILLER_45_225
*1573 FILLER_45_237
*1574 FILLER_45_249
*1575 FILLER_45_261
*1576 FILLER_45_27
*1577 FILLER_45_273
*1578 FILLER_45_279
*1579 FILLER_45_281
*1580 FILLER_45_293
*1581 FILLER_45_3
*1582 FILLER_45_39
*1583 FILLER_45_51
*1584 FILLER_45_55
*1585 FILLER_45_57
*1586 FILLER_45_69
*1587 FILLER_45_75
*1588 FILLER_45_80
*1589 FILLER_45_88
*1590 FILLER_45_98
*1591 FILLER_46_103
*1592 FILLER_46_115
*1593 FILLER_46_127
*1594 FILLER_46_139
*1595 FILLER_46_141
*1596 FILLER_46_153
*1597 FILLER_46_165
*1598 FILLER_46_177
*1599 FILLER_46_18
*1600 FILLER_46_189
*1601 FILLER_46_195
*1602 FILLER_46_197
*1603 FILLER_46_205
*1604 FILLER_46_214
*1605 FILLER_46_226
*1606 FILLER_46_238
*1607 FILLER_46_250
*1608 FILLER_46_253
*1609 FILLER_46_26
*1610 FILLER_46_265
*1611 FILLER_46_277
*1612 FILLER_46_289
*1613 FILLER_46_29
*1614 FILLER_46_297
*1615 FILLER_46_41
*1616 FILLER_46_53
*1617 FILLER_46_6
*1618 FILLER_46_65
*1619 FILLER_46_77