*SPEF "ieee 1481-1999"
*DESIGN "hex_sr"
*DATE "11:11:11 Fri 11 11, 1111"
*VENDOR "OpenRCX"
*PROGRAM "Parallel Extraction"
*VERSION "1.0"
*DESIGN_FLOW "NAME_SCOPE LOCAL" "PIN_CAP NONE"
*DIVIDER /
*DELIMITER :
*BUS_DELIMITER []
*T_UNIT 1 NS
*C_UNIT 1 PF
*R_UNIT 1 OHM
*L_UNIT 1 HENRY

*NAME_MAP
*1 io_in[0]
*2 io_in[1]
*3 io_in[2]
*4 io_in[3]
*5 io_in[4]
*6 io_in[5]
*7 io_in[6]
*8 io_in[7]
*9 net8
*10 net9
*11 io_out[2]
*12 io_out[3]
*13 io_out[4]
*14 io_out[5]
*15 io_out[6]
*16 io_out[7]
*19 _000_
*20 _001_
*21 _002_
*22 _003_
*23 _004_
*24 _005_
*25 _006_
*26 _007_
*27 _008_
*28 _009_
*29 _010_
*30 _011_
*31 _012_
*32 clknet_0_io_in[0]
*33 clknet_1_0__leaf_io_in[0]
*34 clknet_1_1__leaf_io_in[0]
*35 clknet_leaf_0_io_in[0]
*36 clknet_leaf_10_io_in[0]
*37 clknet_leaf_11_io_in[0]
*38 clknet_leaf_1_io_in[0]
*39 clknet_leaf_2_io_in[0]
*40 clknet_leaf_3_io_in[0]
*41 clknet_leaf_4_io_in[0]
*42 clknet_leaf_5_io_in[0]
*43 clknet_leaf_6_io_in[0]
*44 clknet_leaf_7_io_in[0]
*45 clknet_leaf_8_io_in[0]
*46 clknet_leaf_9_io_in[0]
*47 genblk1\[0\]\.sr0\.data_out
*48 genblk1\[0\]\.sr0\.shift_reg\[0\]
*49 genblk1\[0\]\.sr0\.shift_reg\[10\]
*50 genblk1\[0\]\.sr0\.shift_reg\[11\]
*51 genblk1\[0\]\.sr0\.shift_reg\[12\]
*52 genblk1\[0\]\.sr0\.shift_reg\[13\]
*53 genblk1\[0\]\.sr0\.shift_reg\[14\]
*54 genblk1\[0\]\.sr0\.shift_reg\[15\]
*55 genblk1\[0\]\.sr0\.shift_reg\[16\]
*56 genblk1\[0\]\.sr0\.shift_reg\[17\]
*57 genblk1\[0\]\.sr0\.shift_reg\[18\]
*58 genblk1\[0\]\.sr0\.shift_reg\[19\]
*59 genblk1\[0\]\.sr0\.shift_reg\[1\]
*60 genblk1\[0\]\.sr0\.shift_reg\[20\]
*61 genblk1\[0\]\.sr0\.shift_reg\[21\]
*62 genblk1\[0\]\.sr0\.shift_reg\[22\]
*63 genblk1\[0\]\.sr0\.shift_reg\[23\]
*64 genblk1\[0\]\.sr0\.shift_reg\[24\]
*65 genblk1\[0\]\.sr0\.shift_reg\[25\]
*66 genblk1\[0\]\.sr0\.shift_reg\[26\]
*67 genblk1\[0\]\.sr0\.shift_reg\[27\]
*68 genblk1\[0\]\.sr0\.shift_reg\[28\]
*69 genblk1\[0\]\.sr0\.shift_reg\[29\]
*70 genblk1\[0\]\.sr0\.shift_reg\[2\]
*71 genblk1\[0\]\.sr0\.shift_reg\[30\]
*72 genblk1\[0\]\.sr0\.shift_reg\[31\]
*73 genblk1\[0\]\.sr0\.shift_reg\[32\]
*74 genblk1\[0\]\.sr0\.shift_reg\[33\]
*75 genblk1\[0\]\.sr0\.shift_reg\[34\]
*76 genblk1\[0\]\.sr0\.shift_reg\[35\]
*77 genblk1\[0\]\.sr0\.shift_reg\[36\]
*78 genblk1\[0\]\.sr0\.shift_reg\[37\]
*79 genblk1\[0\]\.sr0\.shift_reg\[38\]
*80 genblk1\[0\]\.sr0\.shift_reg\[3\]
*81 genblk1\[0\]\.sr0\.shift_reg\[4\]
*82 genblk1\[0\]\.sr0\.shift_reg\[5\]
*83 genblk1\[0\]\.sr0\.shift_reg\[6\]
*84 genblk1\[0\]\.sr0\.shift_reg\[7\]
*85 genblk1\[0\]\.sr0\.shift_reg\[8\]
*86 genblk1\[0\]\.sr0\.shift_reg\[9\]
*87 genblk1\[1\]\.sr0\.data_out
*88 genblk1\[1\]\.sr0\.shift_reg\[0\]
*89 genblk1\[1\]\.sr0\.shift_reg\[10\]
*90 genblk1\[1\]\.sr0\.shift_reg\[11\]
*91 genblk1\[1\]\.sr0\.shift_reg\[12\]
*92 genblk1\[1\]\.sr0\.shift_reg\[13\]
*93 genblk1\[1\]\.sr0\.shift_reg\[14\]
*94 genblk1\[1\]\.sr0\.shift_reg\[15\]
*95 genblk1\[1\]\.sr0\.shift_reg\[16\]
*96 genblk1\[1\]\.sr0\.shift_reg\[17\]
*97 genblk1\[1\]\.sr0\.shift_reg\[18\]
*98 genblk1\[1\]\.sr0\.shift_reg\[19\]
*99 genblk1\[1\]\.sr0\.shift_reg\[1\]
*100 genblk1\[1\]\.sr0\.shift_reg\[20\]
*101 genblk1\[1\]\.sr0\.shift_reg\[21\]
*102 genblk1\[1\]\.sr0\.shift_reg\[22\]
*103 genblk1\[1\]\.sr0\.shift_reg\[23\]
*104 genblk1\[1\]\.sr0\.shift_reg\[24\]
*105 genblk1\[1\]\.sr0\.shift_reg\[25\]
*106 genblk1\[1\]\.sr0\.shift_reg\[26\]
*107 genblk1\[1\]\.sr0\.shift_reg\[27\]
*108 genblk1\[1\]\.sr0\.shift_reg\[28\]
*109 genblk1\[1\]\.sr0\.shift_reg\[29\]
*110 genblk1\[1\]\.sr0\.shift_reg\[2\]
*111 genblk1\[1\]\.sr0\.shift_reg\[30\]
*112 genblk1\[1\]\.sr0\.shift_reg\[31\]
*113 genblk1\[1\]\.sr0\.shift_reg\[32\]
*114 genblk1\[1\]\.sr0\.shift_reg\[33\]
*115 genblk1\[1\]\.sr0\.shift_reg\[34\]
*116 genblk1\[1\]\.sr0\.shift_reg\[35\]
*117 genblk1\[1\]\.sr0\.shift_reg\[36\]
*118 genblk1\[1\]\.sr0\.shift_reg\[37\]
*119 genblk1\[1\]\.sr0\.shift_reg\[38\]
*120 genblk1\[1\]\.sr0\.shift_reg\[3\]
*121 genblk1\[1\]\.sr0\.shift_reg\[4\]
*122 genblk1\[1\]\.sr0\.shift_reg\[5\]
*123 genblk1\[1\]\.sr0\.shift_reg\[6\]
*124 genblk1\[1\]\.sr0\.shift_reg\[7\]
*125 genblk1\[1\]\.sr0\.shift_reg\[8\]
*126 genblk1\[1\]\.sr0\.shift_reg\[9\]
*127 genblk1\[2\]\.sr0\.data_out
*128 genblk1\[2\]\.sr0\.shift_reg\[0\]
*129 genblk1\[2\]\.sr0\.shift_reg\[10\]
*130 genblk1\[2\]\.sr0\.shift_reg\[11\]
*131 genblk1\[2\]\.sr0\.shift_reg\[12\]
*132 genblk1\[2\]\.sr0\.shift_reg\[13\]
*133 genblk1\[2\]\.sr0\.shift_reg\[14\]
*134 genblk1\[2\]\.sr0\.shift_reg\[15\]
*135 genblk1\[2\]\.sr0\.shift_reg\[16\]
*136 genblk1\[2\]\.sr0\.shift_reg\[17\]
*137 genblk1\[2\]\.sr0\.shift_reg\[18\]
*138 genblk1\[2\]\.sr0\.shift_reg\[19\]
*139 genblk1\[2\]\.sr0\.shift_reg\[1\]
*140 genblk1\[2\]\.sr0\.shift_reg\[20\]
*141 genblk1\[2\]\.sr0\.shift_reg\[21\]
*142 genblk1\[2\]\.sr0\.shift_reg\[22\]
*143 genblk1\[2\]\.sr0\.shift_reg\[23\]
*144 genblk1\[2\]\.sr0\.shift_reg\[24\]
*145 genblk1\[2\]\.sr0\.shift_reg\[25\]
*146 genblk1\[2\]\.sr0\.shift_reg\[26\]
*147 genblk1\[2\]\.sr0\.shift_reg\[27\]
*148 genblk1\[2\]\.sr0\.shift_reg\[28\]
*149 genblk1\[2\]\.sr0\.shift_reg\[29\]
*150 genblk1\[2\]\.sr0\.shift_reg\[2\]
*151 genblk1\[2\]\.sr0\.shift_reg\[30\]
*152 genblk1\[2\]\.sr0\.shift_reg\[31\]
*153 genblk1\[2\]\.sr0\.shift_reg\[32\]
*154 genblk1\[2\]\.sr0\.shift_reg\[33\]
*155 genblk1\[2\]\.sr0\.shift_reg\[34\]
*156 genblk1\[2\]\.sr0\.shift_reg\[35\]
*157 genblk1\[2\]\.sr0\.shift_reg\[36\]
*158 genblk1\[2\]\.sr0\.shift_reg\[37\]
*159 genblk1\[2\]\.sr0\.shift_reg\[38\]
*160 genblk1\[2\]\.sr0\.shift_reg\[3\]
*161 genblk1\[2\]\.sr0\.shift_reg\[4\]
*162 genblk1\[2\]\.sr0\.shift_reg\[5\]
*163 genblk1\[2\]\.sr0\.shift_reg\[6\]
*164 genblk1\[2\]\.sr0\.shift_reg\[7\]
*165 genblk1\[2\]\.sr0\.shift_reg\[8\]
*166 genblk1\[2\]\.sr0\.shift_reg\[9\]
*167 genblk1\[3\]\.sr0\.data_out
*168 genblk1\[3\]\.sr0\.shift_reg\[0\]
*169 genblk1\[3\]\.sr0\.shift_reg\[10\]
*170 genblk1\[3\]\.sr0\.shift_reg\[11\]
*171 genblk1\[3\]\.sr0\.shift_reg\[12\]
*172 genblk1\[3\]\.sr0\.shift_reg\[13\]
*173 genblk1\[3\]\.sr0\.shift_reg\[14\]
*174 genblk1\[3\]\.sr0\.shift_reg\[15\]
*175 genblk1\[3\]\.sr0\.shift_reg\[16\]
*176 genblk1\[3\]\.sr0\.shift_reg\[17\]
*177 genblk1\[3\]\.sr0\.shift_reg\[18\]
*178 genblk1\[3\]\.sr0\.shift_reg\[19\]
*179 genblk1\[3\]\.sr0\.shift_reg\[1\]
*180 genblk1\[3\]\.sr0\.shift_reg\[20\]
*181 genblk1\[3\]\.sr0\.shift_reg\[21\]
*182 genblk1\[3\]\.sr0\.shift_reg\[22\]
*183 genblk1\[3\]\.sr0\.shift_reg\[23\]
*184 genblk1\[3\]\.sr0\.shift_reg\[24\]
*185 genblk1\[3\]\.sr0\.shift_reg\[25\]
*186 genblk1\[3\]\.sr0\.shift_reg\[26\]
*187 genblk1\[3\]\.sr0\.shift_reg\[27\]
*188 genblk1\[3\]\.sr0\.shift_reg\[28\]
*189 genblk1\[3\]\.sr0\.shift_reg\[29\]
*190 genblk1\[3\]\.sr0\.shift_reg\[2\]
*191 genblk1\[3\]\.sr0\.shift_reg\[30\]
*192 genblk1\[3\]\.sr0\.shift_reg\[31\]
*193 genblk1\[3\]\.sr0\.shift_reg\[32\]
*194 genblk1\[3\]\.sr0\.shift_reg\[33\]
*195 genblk1\[3\]\.sr0\.shift_reg\[34\]
*196 genblk1\[3\]\.sr0\.shift_reg\[35\]
*197 genblk1\[3\]\.sr0\.shift_reg\[36\]
*198 genblk1\[3\]\.sr0\.shift_reg\[37\]
*199 genblk1\[3\]\.sr0\.shift_reg\[38\]
*200 genblk1\[3\]\.sr0\.shift_reg\[3\]
*201 genblk1\[3\]\.sr0\.shift_reg\[4\]
*202 genblk1\[3\]\.sr0\.shift_reg\[5\]
*203 genblk1\[3\]\.sr0\.shift_reg\[6\]
*204 genblk1\[3\]\.sr0\.shift_reg\[7\]
*205 genblk1\[3\]\.sr0\.shift_reg\[8\]
*206 genblk1\[3\]\.sr0\.shift_reg\[9\]
*207 genblk1\[4\]\.sr0\.data_out
*208 genblk1\[4\]\.sr0\.shift_reg\[0\]
*209 genblk1\[4\]\.sr0\.shift_reg\[10\]
*210 genblk1\[4\]\.sr0\.shift_reg\[11\]
*211 genblk1\[4\]\.sr0\.shift_reg\[12\]
*212 genblk1\[4\]\.sr0\.shift_reg\[13\]
*213 genblk1\[4\]\.sr0\.shift_reg\[14\]
*214 genblk1\[4\]\.sr0\.shift_reg\[15\]
*215 genblk1\[4\]\.sr0\.shift_reg\[16\]
*216 genblk1\[4\]\.sr0\.shift_reg\[17\]
*217 genblk1\[4\]\.sr0\.shift_reg\[18\]
*218 genblk1\[4\]\.sr0\.shift_reg\[19\]
*219 genblk1\[4\]\.sr0\.shift_reg\[1\]
*220 genblk1\[4\]\.sr0\.shift_reg\[20\]
*221 genblk1\[4\]\.sr0\.shift_reg\[21\]
*222 genblk1\[4\]\.sr0\.shift_reg\[22\]
*223 genblk1\[4\]\.sr0\.shift_reg\[23\]
*224 genblk1\[4\]\.sr0\.shift_reg\[24\]
*225 genblk1\[4\]\.sr0\.shift_reg\[25\]
*226 genblk1\[4\]\.sr0\.shift_reg\[26\]
*227 genblk1\[4\]\.sr0\.shift_reg\[27\]
*228 genblk1\[4\]\.sr0\.shift_reg\[28\]
*229 genblk1\[4\]\.sr0\.shift_reg\[29\]
*230 genblk1\[4\]\.sr0\.shift_reg\[2\]
*231 genblk1\[4\]\.sr0\.shift_reg\[30\]
*232 genblk1\[4\]\.sr0\.shift_reg\[31\]
*233 genblk1\[4\]\.sr0\.shift_reg\[32\]
*234 genblk1\[4\]\.sr0\.shift_reg\[33\]
*235 genblk1\[4\]\.sr0\.shift_reg\[34\]
*236 genblk1\[4\]\.sr0\.shift_reg\[35\]
*237 genblk1\[4\]\.sr0\.shift_reg\[36\]
*238 genblk1\[4\]\.sr0\.shift_reg\[37\]
*239 genblk1\[4\]\.sr0\.shift_reg\[38\]
*240 genblk1\[4\]\.sr0\.shift_reg\[3\]
*241 genblk1\[4\]\.sr0\.shift_reg\[4\]
*242 genblk1\[4\]\.sr0\.shift_reg\[5\]
*243 genblk1\[4\]\.sr0\.shift_reg\[6\]
*244 genblk1\[4\]\.sr0\.shift_reg\[7\]
*245 genblk1\[4\]\.sr0\.shift_reg\[8\]
*246 genblk1\[4\]\.sr0\.shift_reg\[9\]
*247 genblk1\[5\]\.sr0\.data_out
*248 genblk1\[5\]\.sr0\.shift_reg\[0\]
*249 genblk1\[5\]\.sr0\.shift_reg\[10\]
*250 genblk1\[5\]\.sr0\.shift_reg\[11\]
*251 genblk1\[5\]\.sr0\.shift_reg\[12\]
*252 genblk1\[5\]\.sr0\.shift_reg\[13\]
*253 genblk1\[5\]\.sr0\.shift_reg\[14\]
*254 genblk1\[5\]\.sr0\.shift_reg\[15\]
*255 genblk1\[5\]\.sr0\.shift_reg\[16\]
*256 genblk1\[5\]\.sr0\.shift_reg\[17\]
*257 genblk1\[5\]\.sr0\.shift_reg\[18\]
*258 genblk1\[5\]\.sr0\.shift_reg\[19\]
*259 genblk1\[5\]\.sr0\.shift_reg\[1\]
*260 genblk1\[5\]\.sr0\.shift_reg\[20\]
*261 genblk1\[5\]\.sr0\.shift_reg\[21\]
*262 genblk1\[5\]\.sr0\.shift_reg\[22\]
*263 genblk1\[5\]\.sr0\.shift_reg\[23\]
*264 genblk1\[5\]\.sr0\.shift_reg\[24\]
*265 genblk1\[5\]\.sr0\.shift_reg\[25\]
*266 genblk1\[5\]\.sr0\.shift_reg\[26\]
*267 genblk1\[5\]\.sr0\.shift_reg\[27\]
*268 genblk1\[5\]\.sr0\.shift_reg\[28\]
*269 genblk1\[5\]\.sr0\.shift_reg\[29\]
*270 genblk1\[5\]\.sr0\.shift_reg\[2\]
*271 genblk1\[5\]\.sr0\.shift_reg\[30\]
*272 genblk1\[5\]\.sr0\.shift_reg\[31\]
*273 genblk1\[5\]\.sr0\.shift_reg\[32\]
*274 genblk1\[5\]\.sr0\.shift_reg\[33\]
*275 genblk1\[5\]\.sr0\.shift_reg\[34\]
*276 genblk1\[5\]\.sr0\.shift_reg\[35\]
*277 genblk1\[5\]\.sr0\.shift_reg\[36\]
*278 genblk1\[5\]\.sr0\.shift_reg\[37\]
*279 genblk1\[5\]\.sr0\.shift_reg\[38\]
*280 genblk1\[5\]\.sr0\.shift_reg\[3\]
*281 genblk1\[5\]\.sr0\.shift_reg\[4\]
*282 genblk1\[5\]\.sr0\.shift_reg\[5\]
*283 genblk1\[5\]\.sr0\.shift_reg\[6\]
*284 genblk1\[5\]\.sr0\.shift_reg\[7\]
*285 genblk1\[5\]\.sr0\.shift_reg\[8\]
*286 genblk1\[5\]\.sr0\.shift_reg\[9\]
*287 net1
*288 net10
*289 net100
*290 net101
*291 net102
*292 net103
*293 net104
*294 net105
*295 net106
*296 net107
*297 net108
*298 net109
*299 net11
*300 net110
*301 net111
*302 net112
*303 net113
*304 net114
*305 net115
*306 net116
*307 net117
*308 net118
*309 net119
*310 net12
*311 net120
*312 net121
*313 net122
*314 net123
*315 net124
*316 net125
*317 net126
*318 net127
*319 net128
*320 net129
*321 net13
*322 net130
*323 net131
*324 net132
*325 net133
*326 net134
*327 net135
*328 net136
*329 net137
*330 net138
*331 net139
*332 net14
*333 net140
*334 net141
*335 net142
*336 net143
*337 net144
*338 net145
*339 net146
*340 net147
*341 net148
*342 net149
*343 net15
*344 net150
*345 net151
*346 net152
*347 net153
*348 net154
*349 net155
*350 net156
*351 net157
*352 net158
*353 net159
*354 net16
*355 net160
*356 net161
*357 net162
*358 net163
*359 net164
*360 net165
*361 net166
*362 net167
*363 net168
*364 net169
*365 net17
*366 net170
*367 net171
*368 net172
*369 net173
*370 net174
*371 net175
*372 net176
*373 net177
*374 net178
*375 net179
*376 net18
*377 net180
*378 net181
*379 net182
*380 net183
*381 net184
*382 net185
*383 net186
*384 net187
*385 net188
*386 net189
*387 net19
*388 net190
*389 net191
*390 net192
*391 net193
*392 net194
*393 net195
*394 net196
*395 net197
*396 net198
*397 net199
*398 net2
*399 net20
*400 net200
*401 net201
*402 net202
*403 net203
*404 net204
*405 net205
*406 net206
*407 net207
*408 net208
*409 net209
*410 net21
*411 net210
*412 net211
*413 net212
*414 net213
*415 net214
*416 net215
*417 net216
*418 net217
*419 net218
*420 net219
*421 net22
*422 net220
*423 net221
*424 net222
*425 net223
*426 net224
*427 net225
*428 net226
*429 net227
*430 net228
*431 net229
*432 net23
*433 net230
*434 net231
*435 net232
*436 net233
*437 net234
*438 net235
*439 net236
*440 net237
*441 net238
*442 net239
*443 net24
*444 net240
*445 net241
*446 net242
*447 net243
*448 net25
*449 net26
*450 net27
*451 net28
*452 net29
*453 net3
*454 net30
*455 net31
*456 net32
*457 net33
*458 net34
*459 net35
*460 net36
*461 net37
*462 net38
*463 net39
*464 net4
*465 net40
*466 net41
*467 net42
*468 net43
*469 net44
*470 net45
*471 net46
*472 net47
*473 net48
*474 net49
*475 net5
*476 net50
*477 net51
*478 net52
*479 net53
*480 net54
*481 net55
*482 net56
*483 net57
*484 net58
*485 net59
*486 net6
*487 net60
*488 net61
*489 net62
*490 net63
*491 net64
*492 net65
*493 net66
*494 net67
*495 net68
*496 net69
*497 net7
*498 net70
*499 net71
*500 net72
*501 net73
*502 net74
*503 net75
*504 net76
*505 net77
*506 net78
*507 net79
*508 net80
*509 net81
*510 net82
*511 net83
*512 net84
*513 net85
*514 net86
*515 net87
*516 net88
*517 net89
*518 net90
*519 net91
*520 net92
*521 net93
*522 net94
*523 net95
*524 net96
*525 net97
*526 net98
*527 net99
*528 ANTENNA_0
*529 ANTENNA_1
*530 ANTENNA_10
*531 ANTENNA_11
*532 ANTENNA_12
*533 ANTENNA_2
*534 ANTENNA_3
*535 ANTENNA_4
*536 ANTENNA_5
*537 ANTENNA_6
*538 ANTENNA_7
*539 ANTENNA_8
*540 ANTENNA_9
*541 FILLER_0_101
*542 FILLER_0_109
*543 FILLER_0_113
*544 FILLER_0_119
*545 FILLER_0_136
*546 FILLER_0_157
*547 FILLER_0_165
*548 FILLER_0_185
*549 FILLER_0_193
*550 FILLER_0_205
*551 FILLER_0_217
*552 FILLER_0_223
*553 FILLER_0_225
*554 FILLER_0_235
*555 FILLER_0_24
*556 FILLER_0_245
*557 FILLER_0_251
*558 FILLER_0_261
*559 FILLER_0_265
*560 FILLER_0_277
*561 FILLER_0_281
*562 FILLER_0_29
*563 FILLER_0_293
*564 FILLER_0_3
*565 FILLER_0_33
*566 FILLER_0_52
*567 FILLER_0_57
*568 FILLER_0_63
*569 FILLER_0_7
*570 FILLER_0_80
*571 FILLER_10_103
*572 FILLER_10_127
*573 FILLER_10_139
*574 FILLER_10_141
*575 FILLER_10_153
*576 FILLER_10_165
*577 FILLER_10_173
*578 FILLER_10_192
*579 FILLER_10_205
*580 FILLER_10_217
*581 FILLER_10_229
*582 FILLER_10_24
*583 FILLER_10_241
*584 FILLER_10_249
*585 FILLER_10_253
*586 FILLER_10_265
*587 FILLER_10_277
*588 FILLER_10_289
*589 FILLER_10_29
*590 FILLER_10_297
*591 FILLER_10_3
*592 FILLER_10_43
*593 FILLER_10_60
*594 FILLER_10_7
*595 FILLER_10_80
*596 FILLER_10_85
*597 FILLER_10_93
*598 FILLER_11_108
*599 FILLER_11_11
*600 FILLER_11_129
*601 FILLER_11_14
*602 FILLER_11_145
*603 FILLER_11_157
*604 FILLER_11_165
*605 FILLER_11_169
*606 FILLER_11_173
*607 FILLER_11_190
*608 FILLER_11_202
*609 FILLER_11_214
*610 FILLER_11_222
*611 FILLER_11_233
*612 FILLER_11_245
*613 FILLER_11_257
*614 FILLER_11_269
*615 FILLER_11_277
*616 FILLER_11_281
*617 FILLER_11_293
*618 FILLER_11_3
*619 FILLER_11_32
*620 FILLER_11_52
*621 FILLER_11_57
*622 FILLER_11_67
*623 FILLER_11_71
*624 FILLER_11_88
*625 FILLER_12_121
*626 FILLER_12_133
*627 FILLER_12_139
*628 FILLER_12_157
*629 FILLER_12_163
*630 FILLER_12_172
*631 FILLER_12_192
*632 FILLER_12_197
*633 FILLER_12_214
*634 FILLER_12_226
*635 FILLER_12_238
*636 FILLER_12_24
*637 FILLER_12_250
*638 FILLER_12_253
*639 FILLER_12_265
*640 FILLER_12_277
*641 FILLER_12_289
*642 FILLER_12_297
*643 FILLER_12_39
*644 FILLER_12_43
*645 FILLER_12_6
*646 FILLER_12_60
*647 FILLER_12_80
*648 FILLER_12_85
*649 FILLER_12_97
*650 FILLER_13_102
*651 FILLER_13_110
*652 FILLER_13_121
*653 FILLER_13_133
*654 FILLER_13_145
*655 FILLER_13_164
*656 FILLER_13_177
*657 FILLER_13_185
*658 FILLER_13_208
*659 FILLER_13_220
*660 FILLER_13_225
*661 FILLER_13_237
*662 FILLER_13_249
*663 FILLER_13_261
*664 FILLER_13_273
*665 FILLER_13_279
*666 FILLER_13_28
*667 FILLER_13_281
*668 FILLER_13_293
*669 FILLER_13_3
*670 FILLER_13_52
*671 FILLER_13_60
*672 FILLER_13_82
*673 FILLER_14_107
*674 FILLER_14_127
*675 FILLER_14_139
*676 FILLER_14_141
*677 FILLER_14_163
*678 FILLER_14_171
*679 FILLER_14_180
*680 FILLER_14_192
*681 FILLER_14_197
*682 FILLER_14_201
*683 FILLER_14_210
*684 FILLER_14_222
*685 FILLER_14_234
*686 FILLER_14_24
*687 FILLER_14_246
*688 FILLER_14_253
*689 FILLER_14_265
*690 FILLER_14_277
*691 FILLER_14_289
*692 FILLER_14_29
*693 FILLER_14_297
*694 FILLER_14_3
*695 FILLER_14_39
*696 FILLER_14_51
*697 FILLER_14_7
*698 FILLER_14_71
*699 FILLER_14_83
*700 FILLER_14_93
*701 FILLER_15_100
*702 FILLER_15_113
*703 FILLER_15_122
*704 FILLER_15_142
*705 FILLER_15_154
*706 FILLER_15_166
*707 FILLER_15_169
*708 FILLER_15_186
*709 FILLER_15_190
*710 FILLER_15_199
*711 FILLER_15_211
*712 FILLER_15_22
*713 FILLER_15_223
*714 FILLER_15_225
*715 FILLER_15_237
*716 FILLER_15_249
*717 FILLER_15_261
*718 FILLER_15_273
*719 FILLER_15_279
*720 FILLER_15_281
*721 FILLER_15_293
*722 FILLER_15_3
*723 FILLER_15_30
*724 FILLER_15_49
*725 FILLER_15_55
*726 FILLER_15_57
*727 FILLER_15_66
*728 FILLER_15_86
*729 FILLER_16_105
*730 FILLER_16_122
*731 FILLER_16_126
*732 FILLER_16_135
*733 FILLER_16_139
*734 FILLER_16_141
*735 FILLER_16_149
*736 FILLER_16_167
*737 FILLER_16_187
*738 FILLER_16_195
*739 FILLER_16_213
*740 FILLER_16_225
*741 FILLER_16_237
*742 FILLER_16_24
*743 FILLER_16_249
*744 FILLER_16_253
*745 FILLER_16_265
*746 FILLER_16_277
*747 FILLER_16_289
*748 FILLER_16_297
*749 FILLER_16_3
*750 FILLER_16_32
*751 FILLER_16_36
*752 FILLER_16_53
*753 FILLER_16_7
*754 FILLER_16_73
*755 FILLER_16_81
*756 FILLER_16_85
*757 FILLER_16_97
*758 FILLER_17_108
*759 FILLER_17_129
*760 FILLER_17_14
*761 FILLER_17_143
*762 FILLER_17_155
*763 FILLER_17_167
*764 FILLER_17_169
*765 FILLER_17_173
*766 FILLER_17_190
*767 FILLER_17_202
*768 FILLER_17_214
*769 FILLER_17_222
*770 FILLER_17_225
*771 FILLER_17_237
*772 FILLER_17_249
*773 FILLER_17_261
*774 FILLER_17_273
*775 FILLER_17_279
*776 FILLER_17_281
*777 FILLER_17_293
*778 FILLER_17_3
*779 FILLER_17_34
*780 FILLER_17_42
*781 FILLER_17_51
*782 FILLER_17_55
*783 FILLER_17_65
*784 FILLER_17_89
*785 FILLER_17_97
*786 FILLER_18_113
*787 FILLER_18_133
*788 FILLER_18_139
*789 FILLER_18_157
*790 FILLER_18_161
*791 FILLER_18_170
*792 FILLER_18_182
*793 FILLER_18_194
*794 FILLER_18_197
*795 FILLER_18_209
*796 FILLER_18_221
*797 FILLER_18_233
*798 FILLER_18_24
*799 FILLER_18_245
*800 FILLER_18_251
*801 FILLER_18_253
*802 FILLER_18_265
*803 FILLER_18_277
*804 FILLER_18_289
*805 FILLER_18_297
*806 FILLER_18_3
*807 FILLER_18_45
*808 FILLER_18_49
*809 FILLER_18_7
*810 FILLER_18_70
*811 FILLER_18_82
*812 FILLER_18_93
*813 FILLER_19_108
*814 FILLER_19_113
*815 FILLER_19_12
*816 FILLER_19_133
*817 FILLER_19_153
*818 FILLER_19_165
*819 FILLER_19_169
*820 FILLER_19_191
*821 FILLER_19_203
*822 FILLER_19_215
*823 FILLER_19_223
*824 FILLER_19_225
*825 FILLER_19_237
*826 FILLER_19_249
*827 FILLER_19_261
*828 FILLER_19_273
*829 FILLER_19_279
*830 FILLER_19_281
*831 FILLER_19_293
*832 FILLER_19_3
*833 FILLER_19_32
*834 FILLER_19_52
*835 FILLER_19_57
*836 FILLER_19_65
*837 FILLER_19_82
*838 FILLER_19_90
*839 FILLER_1_108
*840 FILLER_1_113
*841 FILLER_1_117
*842 FILLER_1_12
*843 FILLER_1_134
*844 FILLER_1_140
*845 FILLER_1_157
*846 FILLER_1_165
*847 FILLER_1_185
*848 FILLER_1_205
*849 FILLER_1_217
*850 FILLER_1_223
*851 FILLER_1_257
*852 FILLER_1_269
*853 FILLER_1_277
*854 FILLER_1_281
*855 FILLER_1_293
*856 FILLER_1_3
*857 FILLER_1_32
*858 FILLER_1_52
*859 FILLER_1_57
*860 FILLER_1_68
*861 FILLER_1_88
*862 FILLER_20_102
*863 FILLER_20_12
*864 FILLER_20_126
*865 FILLER_20_138
*866 FILLER_20_141
*867 FILLER_20_152
*868 FILLER_20_172
*869 FILLER_20_192
*870 FILLER_20_205
*871 FILLER_20_217
*872 FILLER_20_229
*873 FILLER_20_24
*874 FILLER_20_241
*875 FILLER_20_249
*876 FILLER_20_253
*877 FILLER_20_265
*878 FILLER_20_277
*879 FILLER_20_289
*880 FILLER_20_29
*881 FILLER_20_297
*882 FILLER_20_3
*883 FILLER_20_40
*884 FILLER_20_60
*885 FILLER_20_80
*886 FILLER_20_85
*887 FILLER_21_108
*888 FILLER_21_129
*889 FILLER_21_157
*890 FILLER_21_165
*891 FILLER_21_169
*892 FILLER_21_173
*893 FILLER_21_190
*894 FILLER_21_210
*895 FILLER_21_222
*896 FILLER_21_225
*897 FILLER_21_237
*898 FILLER_21_249
*899 FILLER_21_25
*900 FILLER_21_261
*901 FILLER_21_273
*902 FILLER_21_279
*903 FILLER_21_281
*904 FILLER_21_293
*905 FILLER_21_3
*906 FILLER_21_32
*907 FILLER_21_52
*908 FILLER_21_57
*909 FILLER_21_68
*910 FILLER_21_88
*911 FILLER_22_121
*912 FILLER_22_133
*913 FILLER_22_139
*914 FILLER_22_141
*915 FILLER_22_150
*916 FILLER_22_174
*917 FILLER_22_186
*918 FILLER_22_194
*919 FILLER_22_205
*920 FILLER_22_217
*921 FILLER_22_229
*922 FILLER_22_24
*923 FILLER_22_241
*924 FILLER_22_249
*925 FILLER_22_253
*926 FILLER_22_265
*927 FILLER_22_277
*928 FILLER_22_289
*929 FILLER_22_29
*930 FILLER_22_297
*931 FILLER_22_3
*932 FILLER_22_33
*933 FILLER_22_42
*934 FILLER_22_62
*935 FILLER_22_7
*936 FILLER_22_70
*937 FILLER_22_80
*938 FILLER_22_85
*939 FILLER_22_97
*940 FILLER_23_110
*941 FILLER_23_113
*942 FILLER_23_119
*943 FILLER_23_136
*944 FILLER_23_156
*945 FILLER_23_169
*946 FILLER_23_193
*947 FILLER_23_205
*948 FILLER_23_217
*949 FILLER_23_223
*950 FILLER_23_225
*951 FILLER_23_237
*952 FILLER_23_249
*953 FILLER_23_26
*954 FILLER_23_261
*955 FILLER_23_273
*956 FILLER_23_279
*957 FILLER_23_281
*958 FILLER_23_293
*959 FILLER_23_48
*960 FILLER_23_6
*961 FILLER_23_73
*962 FILLER_23_81
*963 FILLER_23_98
*964 FILLER_24_110
*965 FILLER_24_130
*966 FILLER_24_138
*967 FILLER_24_141
*968 FILLER_24_147
*969 FILLER_24_164
*970 FILLER_24_184
*971 FILLER_24_197
*972 FILLER_24_209
*973 FILLER_24_221
*974 FILLER_24_233
*975 FILLER_24_24
*976 FILLER_24_245
*977 FILLER_24_251
*978 FILLER_24_253
*979 FILLER_24_265
*980 FILLER_24_277
*981 FILLER_24_289
*982 FILLER_24_29
*983 FILLER_24_297
*984 FILLER_24_3
*985 FILLER_24_46
*986 FILLER_24_7
*987 FILLER_24_70
*988 FILLER_24_82
*989 FILLER_24_85
*990 FILLER_24_89
*991 FILLER_24_98
*992 FILLER_25_11
*993 FILLER_25_110
*994 FILLER_25_113
*995 FILLER_25_133
*996 FILLER_25_147
*997 FILLER_25_155
*998 FILLER_25_164
*999 FILLER_25_169
*1000 FILLER_25_188
*1001 FILLER_25_200
*1002 FILLER_25_212
*1003 FILLER_25_225
*1004 FILLER_25_23
*1005 FILLER_25_237
*1006 FILLER_25_249
*1007 FILLER_25_261
*1008 FILLER_25_273
*1009 FILLER_25_279
*1010 FILLER_25_281
*1011 FILLER_25_293
*1012 FILLER_25_43
*1013 FILLER_25_55
*1014 FILLER_25_65
*1015 FILLER_25_69
*1016 FILLER_25_78
*1017 FILLER_25_98
*1018 FILLER_26_108
*1019 FILLER_26_12
*1020 FILLER_26_124
*1021 FILLER_26_136
*1022 FILLER_26_141
*1023 FILLER_26_152
*1024 FILLER_26_160
*1025 FILLER_26_171
*1026 FILLER_26_183
*1027 FILLER_26_195
*1028 FILLER_26_197
*1029 FILLER_26_209
*1030 FILLER_26_221
*1031 FILLER_26_233
*1032 FILLER_26_24
*1033 FILLER_26_245
*1034 FILLER_26_251
*1035 FILLER_26_253
*1036 FILLER_26_265
*1037 FILLER_26_277
*1038 FILLER_26_289
*1039 FILLER_26_29
*1040 FILLER_26_297
*1041 FILLER_26_3
*1042 FILLER_26_33
*1043 FILLER_26_42
*1044 FILLER_26_70
*1045 FILLER_26_82
*1046 FILLER_26_93
*1047 FILLER_26_99
*1048 FILLER_27_11
*1049 FILLER_27_111
*1050 FILLER_27_113
*1051 FILLER_27_130
*1052 FILLER_27_150
*1053 FILLER_27_162
*1054 FILLER_27_169
*1055 FILLER_27_189
*1056 FILLER_27_201
*1057 FILLER_27_213
*1058 FILLER_27_221
*1059 FILLER_27_225
*1060 FILLER_27_23
*1061 FILLER_27_237
*1062 FILLER_27_249
*1063 FILLER_27_261
*1064 FILLER_27_27
*1065 FILLER_27_273
*1066 FILLER_27_279
*1067 FILLER_27_281
*1068 FILLER_27_293
*1069 FILLER_27_36
*1070 FILLER_27_48
*1071 FILLER_27_57
*1072 FILLER_27_65
*1073 FILLER_27_75
*1074 FILLER_27_99
*1075 FILLER_28_106
*1076 FILLER_28_12
*1077 FILLER_28_126
*1078 FILLER_28_138
*1079 FILLER_28_157
*1080 FILLER_28_169
*1081 FILLER_28_188
*1082 FILLER_28_197
*1083 FILLER_28_209
*1084 FILLER_28_221
*1085 FILLER_28_233
*1086 FILLER_28_24
*1087 FILLER_28_245
*1088 FILLER_28_251
*1089 FILLER_28_253
*1090 FILLER_28_265
*1091 FILLER_28_277
*1092 FILLER_28_289
*1093 FILLER_28_29
*1094 FILLER_28_297
*1095 FILLER_28_3
*1096 FILLER_28_39
*1097 FILLER_28_45
*1098 FILLER_28_62
*1099 FILLER_28_70
*1100 FILLER_28_80
*1101 FILLER_28_85
*1102 FILLER_28_94
*1103 FILLER_29_104
*1104 FILLER_29_113
*1105 FILLER_29_121
*1106 FILLER_29_138
*1107 FILLER_29_14
*1108 FILLER_29_158
*1109 FILLER_29_166
*1110 FILLER_29_169
*1111 FILLER_29_189
*1112 FILLER_29_201
*1113 FILLER_29_213
*1114 FILLER_29_221
*1115 FILLER_29_225
*1116 FILLER_29_237
*1117 FILLER_29_249
*1118 FILLER_29_261
*1119 FILLER_29_273
*1120 FILLER_29_279
*1121 FILLER_29_281
*1122 FILLER_29_293
*1123 FILLER_29_3
*1124 FILLER_29_34
*1125 FILLER_29_46
*1126 FILLER_29_54
*1127 FILLER_29_65
*1128 FILLER_29_73
*1129 FILLER_29_84
*1130 FILLER_2_115
*1131 FILLER_2_119
*1132 FILLER_2_136
*1133 FILLER_2_141
*1134 FILLER_2_147
*1135 FILLER_2_156
*1136 FILLER_2_180
*1137 FILLER_2_192
*1138 FILLER_2_213
*1139 FILLER_2_225
*1140 FILLER_2_237
*1141 FILLER_2_24
*1142 FILLER_2_249
*1143 FILLER_2_261
*1144 FILLER_2_265
*1145 FILLER_2_277
*1146 FILLER_2_289
*1147 FILLER_2_29
*1148 FILLER_2_297
*1149 FILLER_2_3
*1150 FILLER_2_38
*1151 FILLER_2_42
*1152 FILLER_2_60
*1153 FILLER_2_7
*1154 FILLER_2_80
*1155 FILLER_2_85
*1156 FILLER_2_95
*1157 FILLER_30_115
*1158 FILLER_30_135
*1159 FILLER_30_139
*1160 FILLER_30_141
*1161 FILLER_30_147
*1162 FILLER_30_164
*1163 FILLER_30_184
*1164 FILLER_30_205
*1165 FILLER_30_217
*1166 FILLER_30_229
*1167 FILLER_30_24
*1168 FILLER_30_241
*1169 FILLER_30_249
*1170 FILLER_30_253
*1171 FILLER_30_265
*1172 FILLER_30_277
*1173 FILLER_30_289
*1174 FILLER_30_297
*1175 FILLER_30_3
*1176 FILLER_30_32
*1177 FILLER_30_36
*1178 FILLER_30_53
*1179 FILLER_30_65
*1180 FILLER_30_7
*1181 FILLER_30_77
*1182 FILLER_30_83
*1183 FILLER_30_85
*1184 FILLER_30_95
*1185 FILLER_31_107
*1186 FILLER_31_111
*1187 FILLER_31_113
*1188 FILLER_31_12
*1189 FILLER_31_131
*1190 FILLER_31_151
*1191 FILLER_31_155
*1192 FILLER_31_164
*1193 FILLER_31_185
*1194 FILLER_31_205
*1195 FILLER_31_217
*1196 FILLER_31_223
*1197 FILLER_31_225
*1198 FILLER_31_237
*1199 FILLER_31_249
*1200 FILLER_31_261
*1201 FILLER_31_273
*1202 FILLER_31_279
*1203 FILLER_31_281
*1204 FILLER_31_293
*1205 FILLER_31_3
*1206 FILLER_31_32
*1207 FILLER_31_52
*1208 FILLER_31_57
*1209 FILLER_31_61
*1210 FILLER_31_78
*1211 FILLER_31_90
*1212 FILLER_32_105
*1213 FILLER_32_125
*1214 FILLER_32_137
*1215 FILLER_32_141
*1216 FILLER_32_145
*1217 FILLER_32_162
*1218 FILLER_32_170
*1219 FILLER_32_188
*1220 FILLER_32_205
*1221 FILLER_32_217
*1222 FILLER_32_229
*1223 FILLER_32_24
*1224 FILLER_32_241
*1225 FILLER_32_249
*1226 FILLER_32_253
*1227 FILLER_32_265
*1228 FILLER_32_277
*1229 FILLER_32_289
*1230 FILLER_32_297
*1231 FILLER_32_3
*1232 FILLER_32_45
*1233 FILLER_32_51
*1234 FILLER_32_60
*1235 FILLER_32_7
*1236 FILLER_32_80
*1237 FILLER_32_85
*1238 FILLER_33_108
*1239 FILLER_33_113
*1240 FILLER_33_122
*1241 FILLER_33_146
*1242 FILLER_33_154
*1243 FILLER_33_164
*1244 FILLER_33_185
*1245 FILLER_33_197
*1246 FILLER_33_209
*1247 FILLER_33_22
*1248 FILLER_33_221
*1249 FILLER_33_225
*1250 FILLER_33_237
*1251 FILLER_33_249
*1252 FILLER_33_261
*1253 FILLER_33_273
*1254 FILLER_33_279
*1255 FILLER_33_281
*1256 FILLER_33_293
*1257 FILLER_33_3
*1258 FILLER_33_34
*1259 FILLER_33_52
*1260 FILLER_33_73
*1261 FILLER_33_85
*1262 FILLER_33_91
*1263 FILLER_34_113
*1264 FILLER_34_119
*1265 FILLER_34_136
*1266 FILLER_34_149
*1267 FILLER_34_161
*1268 FILLER_34_169
*1269 FILLER_34_188
*1270 FILLER_34_205
*1271 FILLER_34_217
*1272 FILLER_34_22
*1273 FILLER_34_229
*1274 FILLER_34_241
*1275 FILLER_34_249
*1276 FILLER_34_253
*1277 FILLER_34_265
*1278 FILLER_34_277
*1279 FILLER_34_289
*1280 FILLER_34_297
*1281 FILLER_34_3
*1282 FILLER_34_45
*1283 FILLER_34_57
*1284 FILLER_34_75
*1285 FILLER_34_83
*1286 FILLER_34_93
*1287 FILLER_35_106
*1288 FILLER_35_121
*1289 FILLER_35_127
*1290 FILLER_35_137
*1291 FILLER_35_149
*1292 FILLER_35_158
*1293 FILLER_35_166
*1294 FILLER_35_169
*1295 FILLER_35_173
*1296 FILLER_35_190
*1297 FILLER_35_202
*1298 FILLER_35_214
*1299 FILLER_35_222
*1300 FILLER_35_225
*1301 FILLER_35_237
*1302 FILLER_35_249
*1303 FILLER_35_25
*1304 FILLER_35_261
*1305 FILLER_35_273
*1306 FILLER_35_279
*1307 FILLER_35_281
*1308 FILLER_35_293
*1309 FILLER_35_3
*1310 FILLER_35_45
*1311 FILLER_35_53
*1312 FILLER_35_57
*1313 FILLER_35_65
*1314 FILLER_35_82
*1315 FILLER_36_108
*1316 FILLER_36_112
*1317 FILLER_36_121
*1318 FILLER_36_133
*1319 FILLER_36_139
*1320 FILLER_36_157
*1321 FILLER_36_169
*1322 FILLER_36_187
*1323 FILLER_36_195
*1324 FILLER_36_205
*1325 FILLER_36_21
*1326 FILLER_36_217
*1327 FILLER_36_229
*1328 FILLER_36_241
*1329 FILLER_36_249
*1330 FILLER_36_253
*1331 FILLER_36_265
*1332 FILLER_36_27
*1333 FILLER_36_277
*1334 FILLER_36_289
*1335 FILLER_36_29
*1336 FILLER_36_297
*1337 FILLER_36_3
*1338 FILLER_36_53
*1339 FILLER_36_77
*1340 FILLER_36_83
*1341 FILLER_36_85
*1342 FILLER_36_96
*1343 FILLER_37_102
*1344 FILLER_37_110
*1345 FILLER_37_12
*1346 FILLER_37_121
*1347 FILLER_37_127
*1348 FILLER_37_136
*1349 FILLER_37_140
*1350 FILLER_37_157
*1351 FILLER_37_165
*1352 FILLER_37_169
*1353 FILLER_37_197
*1354 FILLER_37_217
*1355 FILLER_37_223
*1356 FILLER_37_225
*1357 FILLER_37_237
*1358 FILLER_37_249
*1359 FILLER_37_261
*1360 FILLER_37_273
*1361 FILLER_37_279
*1362 FILLER_37_281
*1363 FILLER_37_293
*1364 FILLER_37_3
*1365 FILLER_37_32
*1366 FILLER_37_52
*1367 FILLER_37_60
*1368 FILLER_37_80
*1369 FILLER_38_112
*1370 FILLER_38_132
*1371 FILLER_38_157
*1372 FILLER_38_185
*1373 FILLER_38_193
*1374 FILLER_38_213
*1375 FILLER_38_225
*1376 FILLER_38_237
*1377 FILLER_38_24
*1378 FILLER_38_249
*1379 FILLER_38_253
*1380 FILLER_38_265
*1381 FILLER_38_277
*1382 FILLER_38_289
*1383 FILLER_38_29
*1384 FILLER_38_297
*1385 FILLER_38_3
*1386 FILLER_38_40
*1387 FILLER_38_60
*1388 FILLER_38_7
*1389 FILLER_38_80
*1390 FILLER_38_85
*1391 FILLER_38_93
*1392 FILLER_39_108
*1393 FILLER_39_113
*1394 FILLER_39_12
*1395 FILLER_39_121
*1396 FILLER_39_138
*1397 FILLER_39_158
*1398 FILLER_39_166
*1399 FILLER_39_185
*1400 FILLER_39_205
*1401 FILLER_39_217
*1402 FILLER_39_223
*1403 FILLER_39_225
*1404 FILLER_39_237
*1405 FILLER_39_249
*1406 FILLER_39_261
*1407 FILLER_39_273
*1408 FILLER_39_279
*1409 FILLER_39_281