*SPEF "ieee 1481-1999"
*DESIGN "jar_sram_top"
*DATE "11:11:11 Fri 11 11, 1111"
*VENDOR "OpenRCX"
*PROGRAM "Parallel Extraction"
*VERSION "1.0"
*DESIGN_FLOW "NAME_SCOPE LOCAL" "PIN_CAP NONE"
*DIVIDER /
*DELIMITER :
*BUS_DELIMITER []
*T_UNIT 1 NS
*C_UNIT 1 PF
*R_UNIT 1 OHM
*L_UNIT 1 HENRY

*NAME_MAP
*1 io_in[0]
*2 io_in[1]
*3 io_in[2]
*4 io_in[3]
*5 io_in[4]
*6 io_in[5]
*7 io_in[6]
*8 io_in[7]
*9 io_out[0]
*10 io_out[1]
*11 io_out[2]
*12 io_out[3]
*13 io_out[4]
*14 io_out[5]
*15 io_out[6]
*16 io_out[7]
*19 _0000_
*20 _0001_
*21 _0002_
*22 _0003_
*23 _0004_
*24 _0005_
*25 _0006_
*26 _0007_
*27 _0008_
*28 _0009_
*29 _0010_
*30 _0011_
*31 _0012_
*32 _0013_
*33 _0014_
*34 _0015_
*35 _0016_
*36 _0017_
*37 _0018_
*38 _0019_
*39 _0020_
*40 _0021_
*41 _0022_
*42 _0023_
*43 _0024_
*44 _0025_
*45 _0026_
*46 _0027_
*47 _0028_
*48 _0029_
*49 _0030_
*50 _0031_
*51 _0032_
*52 _0033_
*53 _0034_
*54 _0035_
*55 _0036_
*56 _0037_
*57 _0038_
*58 _0039_
*59 _0040_
*60 _0041_
*61 _0042_
*62 _0043_
*63 _0044_
*64 _0045_
*65 _0046_
*66 _0047_
*67 _0048_
*68 _0049_
*69 _0050_
*70 _0051_
*71 _0052_
*72 _0053_
*73 _0054_
*74 _0055_
*75 _0056_
*76 _0057_
*77 _0058_
*78 _0059_
*79 _0060_
*80 _0061_
*81 _0062_
*82 _0063_
*83 _0064_
*84 _0065_
*85 _0066_
*86 _0067_
*87 _0068_
*88 _0069_
*89 _0070_
*90 _0071_
*91 _0072_
*92 _0073_
*93 _0074_
*94 _0075_
*95 _0076_
*96 _0077_
*97 _0078_
*98 _0079_
*99 _0080_
*100 _0081_
*101 _0082_
*102 _0083_
*103 _0084_
*104 _0085_
*105 _0086_
*106 _0087_
*107 _0088_
*108 _0089_
*109 _0090_
*110 _0091_
*111 _0092_
*112 _0093_
*113 _0094_
*114 _0095_
*115 _0096_
*116 _0097_
*117 _0098_
*118 _0099_
*119 _0100_
*120 _0101_
*121 _0102_
*122 _0103_
*123 _0104_
*124 _0105_
*125 _0106_
*126 _0107_
*127 _0108_
*128 _0109_
*129 _0110_
*130 _0111_
*131 _0112_
*132 _0113_
*133 _0114_
*134 _0115_
*135 _0116_
*136 _0117_
*137 _0118_
*138 _0119_
*139 _0120_
*140 _0121_
*141 _0122_
*142 _0123_
*143 _0124_
*144 _0125_
*145 _0126_
*146 _0127_
*147 _0128_
*148 _0129_
*149 _0130_
*150 _0131_
*151 _0132_
*152 _0133_
*153 _0134_
*154 _0135_
*155 _0136_
*156 _0137_
*157 _0138_
*158 _0139_
*159 _0140_
*160 _0141_
*161 _0142_
*162 _0143_
*163 _0144_
*164 _0145_
*165 _0146_
*166 _0147_
*167 _0148_
*168 _0149_
*169 _0150_
*170 _0151_
*171 _0152_
*172 _0153_
*173 _0154_
*174 _0155_
*175 _0156_
*176 _0157_
*177 _0158_
*178 _0159_
*179 _0160_
*180 _0161_
*181 _0162_
*182 _0163_
*183 _0164_
*184 _0165_
*185 _0166_
*186 _0167_
*187 _0168_
*188 _0169_
*189 _0170_
*190 _0171_
*191 _0172_
*192 _0173_
*193 _0174_
*194 _0175_
*195 _0176_
*196 _0177_
*197 _0178_
*198 _0179_
*199 _0180_
*200 _0181_
*201 _0182_
*202 _0183_
*203 _0184_
*204 _0185_
*205 _0186_
*206 _0187_
*207 _0188_
*208 _0189_
*209 _0190_
*210 _0191_
*211 _0192_
*212 _0193_
*213 _0194_
*214 _0195_
*215 _0196_
*216 _0197_
*217 _0198_
*218 _0199_
*219 _0200_
*220 _0201_
*221 _0202_
*222 _0203_
*223 _0204_
*224 _0205_
*225 _0206_
*226 _0207_
*227 _0208_
*228 _0209_
*229 _0210_
*230 _0211_
*231 _0212_
*232 _0213_
*233 _0214_
*234 _0215_
*235 _0216_
*236 _0217_
*237 _0218_
*238 _0219_
*239 _0220_
*240 _0221_
*241 _0222_
*242 _0223_
*243 _0224_
*244 _0225_
*245 _0226_
*246 _0227_
*247 _0228_
*248 _0229_
*249 _0230_
*250 _0231_
*251 _0232_
*252 _0233_
*253 _0234_
*254 _0235_
*255 _0236_
*256 _0237_
*257 _0238_
*258 _0239_
*259 _0240_
*260 _0241_
*261 _0242_
*262 _0243_
*263 _0244_
*264 _0245_
*265 _0246_
*266 _0247_
*267 _0248_
*268 _0249_
*269 _0250_
*270 _0251_
*271 _0252_
*272 _0253_
*273 _0254_
*274 _0255_
*275 _0256_
*276 _0257_
*277 _0258_
*278 _0259_
*279 _0260_
*280 _0261_
*281 _0262_
*282 _0263_
*283 _0264_
*284 _0265_
*285 _0266_
*286 _0267_
*287 _0268_
*288 _0269_
*289 _0270_
*290 _0271_
*291 _0272_
*292 _0273_
*293 _0274_
*294 _0275_
*295 _0276_
*296 _0277_
*297 _0278_
*298 _0279_
*299 _0280_
*300 _0281_
*301 _0282_
*302 _0283_
*303 _0284_
*304 _0285_
*305 _0286_
*306 _0287_
*307 _0288_
*308 _0289_
*309 _0290_
*310 _0291_
*311 _0292_
*312 _0293_
*313 _0294_
*314 _0295_
*315 _0296_
*316 _0297_
*317 _0298_
*318 _0299_
*319 _0300_
*320 _0301_
*321 _0302_
*322 _0303_
*323 _0304_
*324 _0305_
*325 _0306_
*326 _0307_
*327 _0308_
*328 _0309_
*329 _0310_
*330 _0311_
*331 _0312_
*332 _0313_
*333 _0314_
*334 _0315_
*335 _0316_
*336 _0317_
*337 _0318_
*338 _0319_
*339 _0320_
*340 _0321_
*341 _0322_
*342 _0323_
*343 _0324_
*344 _0325_
*345 _0326_
*346 _0327_
*347 _0328_
*348 _0329_
*349 _0330_
*350 _0331_
*351 _0332_
*352 _0333_
*353 _0334_
*354 _0335_
*355 _0336_
*356 _0337_
*357 _0338_
*358 _0339_
*359 _0340_
*360 _0341_
*361 _0342_
*362 _0343_
*363 _0344_
*364 _0345_
*365 _0346_
*366 _0347_
*367 _0348_
*368 _0349_
*369 _0350_
*370 _0351_
*371 _0352_
*372 _0353_
*373 _0354_
*374 _0355_
*375 _0356_
*376 _0357_
*377 _0358_
*378 _0359_
*379 _0360_
*380 _0361_
*381 _0362_
*382 _0363_
*383 _0364_
*384 _0365_
*385 _0366_
*386 _0367_
*387 _0368_
*388 _0369_
*389 _0370_
*390 _0371_
*391 _0372_
*392 _0373_
*393 _0374_
*394 _0375_
*395 _0376_
*396 _0377_
*397 _0378_
*398 _0379_
*399 _0380_
*400 _0381_
*401 _0382_
*402 _0383_
*403 _0384_
*404 _0385_
*405 _0386_
*406 _0387_
*407 _0388_
*408 _0389_
*409 _0390_
*410 _0391_
*411 _0392_
*412 _0393_
*413 _0394_
*414 _0395_
*415 _0396_
*416 _0397_
*417 _0398_
*418 _0399_
*419 _0400_
*420 _0401_
*421 _0402_
*422 _0403_
*423 _0404_
*424 _0405_
*425 _0406_
*426 _0407_
*427 _0408_
*428 _0409_
*429 _0410_
*430 _0411_
*431 _0412_
*432 _0413_
*433 _0414_
*434 _0415_
*435 _0416_
*436 _0417_
*437 _0418_
*438 _0419_
*439 _0420_
*440 _0421_
*441 _0422_
*442 _0423_
*443 _0424_
*444 _0425_
*445 _0426_
*446 _0427_
*447 _0428_
*448 _0429_
*449 _0430_
*450 _0431_
*451 _0432_
*452 _0433_
*453 _0434_
*454 _0435_
*455 _0436_
*456 _0437_
*457 _0438_
*458 _0439_
*459 _0440_
*460 _0441_
*461 _0442_
*462 _0443_
*463 _0444_
*464 _0445_
*465 _0446_
*466 _0447_
*467 _0448_
*468 _0449_
*469 _0450_
*470 _0451_
*471 _0452_
*472 _0453_
*473 _0454_
*474 _0455_
*475 _0456_
*476 _0457_
*477 _0458_
*478 _0459_
*479 _0460_
*480 _0461_
*481 _0462_
*482 _0463_
*483 _0464_
*484 _0465_
*485 _0466_
*486 _0467_
*487 _0468_
*488 _0469_
*489 _0470_
*490 _0471_
*491 _0472_
*492 _0473_
*493 _0474_
*494 _0475_
*495 _0476_
*496 _0477_
*497 _0478_
*498 _0479_
*499 _0480_
*500 _0481_
*501 _0482_
*502 _0483_
*503 _0484_
*504 _0485_
*505 _0486_
*506 _0487_
*507 _0488_
*508 _0489_
*509 _0490_
*510 _0491_
*511 _0492_
*512 _0493_
*513 _0494_
*514 _0495_
*515 _0496_
*516 _0497_
*517 _0498_
*518 _0499_
*519 _0500_
*520 _0501_
*521 _0502_
*522 _0503_
*523 _0504_
*524 _0505_
*525 _0506_
*526 _0507_
*527 _0508_
*528 _0509_
*529 _0510_
*530 _0511_
*531 _0512_
*532 _0513_
*533 _0514_
*534 _0515_
*535 _0516_
*536 _0517_
*537 _0518_
*538 _0519_
*539 _0520_
*540 _0521_
*541 _0522_
*542 _0523_
*543 _0524_
*544 _0525_
*545 _0526_
*546 _0527_
*547 _0528_
*548 _0529_
*549 _0530_
*550 _0531_
*551 _0532_
*552 _0533_
*553 _0534_
*554 _0535_
*555 _0536_
*556 _0537_
*557 _0538_
*558 _0539_
*559 _0540_
*560 _0541_
*561 _0542_
*562 _0543_
*563 _0544_
*564 _0545_
*565 _0546_
*566 _0547_
*567 _0548_
*568 _0549_
*569 _0550_
*570 _0551_
*571 _0552_
*572 _0553_
*573 _0554_
*574 _0555_
*575 _0556_
*576 _0557_
*577 _0558_
*578 _0559_
*579 _0560_
*580 _0561_
*581 _0562_
*582 _0563_
*583 _0564_
*584 _0565_
*585 _0566_
*586 _0567_
*587 _0568_
*588 _0569_
*589 _0570_
*590 _0571_
*591 _0572_
*592 _0573_
*593 _0574_
*594 _0575_
*595 _0576_
*596 _0577_
*597 _0578_
*598 _0579_
*599 _0580_
*600 _0581_
*601 _0582_
*602 _0583_
*603 _0584_
*604 _0585_
*605 _0586_
*606 _0587_
*607 _0588_
*608 _0589_
*609 _0590_
*610 _0591_
*611 _0592_
*612 _0593_
*613 _0594_
*614 _0595_
*615 _0596_
*616 _0597_
*617 _0598_
*618 _0599_
*619 _0600_
*620 _0601_
*621 _0602_
*622 _0603_
*623 _0604_
*624 _0605_
*625 _0606_
*626 _0607_
*627 _0608_
*628 _0609_
*629 _0610_
*630 _0611_
*631 _0612_
*632 _0613_
*633 _0614_
*634 _0615_
*635 _0616_
*636 _0617_
*637 _0618_
*638 _0619_
*639 _0620_
*640 _0621_
*641 _0622_
*642 _0623_
*643 _0624_
*644 _0625_
*645 _0626_
*646 _0627_
*647 _0628_
*648 _0629_
*649 _0630_
*650 _0631_
*651 _0632_
*652 _0633_
*653 _0634_
*654 _0635_
*655 _0636_
*656 _0637_
*657 _0638_
*658 _0639_
*659 _0640_
*660 _0641_
*661 _0642_
*662 _0643_
*663 _0644_
*664 _0645_
*665 _0646_
*666 _0647_
*667 _0648_
*668 _0649_
*669 _0650_
*670 _0651_
*671 _0652_
*672 _0653_
*673 _0654_
*674 _0655_
*675 _0656_
*676 _0657_
*677 _0658_
*678 _0659_
*679 _0660_
*680 _0661_
*681 _0662_
*682 _0663_
*683 _0664_
*684 _0665_
*685 _0666_
*686 _0667_
*687 _0668_
*688 _0669_
*689 _0670_
*690 _0671_
*691 clknet_0_io_in[0]
*692 clknet_4_0_0_io_in[0]
*693 clknet_4_10_0_io_in[0]
*694 clknet_4_11_0_io_in[0]
*695 clknet_4_12_0_io_in[0]
*696 clknet_4_13_0_io_in[0]
*697 clknet_4_14_0_io_in[0]
*698 clknet_4_15_0_io_in[0]
*699 clknet_4_1_0_io_in[0]
*700 clknet_4_2_0_io_in[0]
*701 clknet_4_3_0_io_in[0]
*702 clknet_4_4_0_io_in[0]
*703 clknet_4_5_0_io_in[0]
*704 clknet_4_6_0_io_in[0]
*705 clknet_4_7_0_io_in[0]
*706 clknet_4_8_0_io_in[0]
*707 clknet_4_9_0_io_in[0]
*708 data_tmp\[0\]
*709 data_tmp\[1\]
*710 data_tmp\[2\]
*711 data_tmp\[3\]
*712 data_tmp\[4\]
*713 data_tmp\[5\]
*714 data_tmp\[6\]
*715 data_tmp\[7\]
*716 mem\[0\]\[0\]
*717 mem\[0\]\[1\]
*718 mem\[0\]\[2\]
*719 mem\[0\]\[3\]
*720 mem\[0\]\[4\]
*721 mem\[0\]\[5\]
*722 mem\[0\]\[6\]
*723 mem\[0\]\[7\]
*724 mem\[10\]\[0\]
*725 mem\[10\]\[1\]
*726 mem\[10\]\[2\]
*727 mem\[10\]\[3\]
*728 mem\[10\]\[4\]
*729 mem\[10\]\[5\]
*730 mem\[10\]\[6\]
*731 mem\[10\]\[7\]
*732 mem\[11\]\[0\]
*733 mem\[11\]\[1\]
*734 mem\[11\]\[2\]
*735 mem\[11\]\[3\]
*736 mem\[11\]\[4\]
*737 mem\[11\]\[5\]
*738 mem\[11\]\[6\]
*739 mem\[11\]\[7\]
*740 mem\[12\]\[0\]
*741 mem\[12\]\[1\]
*742 mem\[12\]\[2\]
*743 mem\[12\]\[3\]
*744 mem\[12\]\[4\]
*745 mem\[12\]\[5\]
*746 mem\[12\]\[6\]
*747 mem\[12\]\[7\]
*748 mem\[13\]\[0\]
*749 mem\[13\]\[1\]
*750 mem\[13\]\[2\]
*751 mem\[13\]\[3\]
*752 mem\[13\]\[4\]
*753 mem\[13\]\[5\]
*754 mem\[13\]\[6\]
*755 mem\[13\]\[7\]
*756 mem\[14\]\[0\]
*757 mem\[14\]\[1\]
*758 mem\[14\]\[2\]
*759 mem\[14\]\[3\]
*760 mem\[14\]\[4\]
*761 mem\[14\]\[5\]
*762 mem\[14\]\[6\]
*763 mem\[14\]\[7\]
*764 mem\[15\]\[0\]
*765 mem\[15\]\[1\]
*766 mem\[15\]\[2\]
*767 mem\[15\]\[3\]
*768 mem\[15\]\[4\]
*769 mem\[15\]\[5\]
*770 mem\[15\]\[6\]
*771 mem\[15\]\[7\]
*772 mem\[1\]\[0\]
*773 mem\[1\]\[1\]
*774 mem\[1\]\[2\]
*775 mem\[1\]\[3\]
*776 mem\[1\]\[4\]
*777 mem\[1\]\[5\]
*778 mem\[1\]\[6\]
*779 mem\[1\]\[7\]
*780 mem\[2\]\[0\]
*781 mem\[2\]\[1\]
*782 mem\[2\]\[2\]
*783 mem\[2\]\[3\]
*784 mem\[2\]\[4\]
*785 mem\[2\]\[5\]
*786 mem\[2\]\[6\]
*787 mem\[2\]\[7\]
*788 mem\[3\]\[0\]
*789 mem\[3\]\[1\]
*790 mem\[3\]\[2\]
*791 mem\[3\]\[3\]
*792 mem\[3\]\[4\]
*793 mem\[3\]\[5\]
*794 mem\[3\]\[6\]
*795 mem\[3\]\[7\]
*796 mem\[4\]\[0\]
*797 mem\[4\]\[1\]
*798 mem\[4\]\[2\]
*799 mem\[4\]\[3\]
*800 mem\[4\]\[4\]
*801 mem\[4\]\[5\]
*802 mem\[4\]\[6\]
*803 mem\[4\]\[7\]
*804 mem\[5\]\[0\]
*805 mem\[5\]\[1\]
*806 mem\[5\]\[2\]
*807 mem\[5\]\[3\]
*808 mem\[5\]\[4\]
*809 mem\[5\]\[5\]
*810 mem\[5\]\[6\]
*811 mem\[5\]\[7\]
*812 mem\[6\]\[0\]
*813 mem\[6\]\[1\]
*814 mem\[6\]\[2\]
*815 mem\[6\]\[3\]
*816 mem\[6\]\[4\]
*817 mem\[6\]\[5\]
*818 mem\[6\]\[6\]
*819 mem\[6\]\[7\]
*820 mem\[7\]\[0\]
*821 mem\[7\]\[1\]
*822 mem\[7\]\[2\]
*823 mem\[7\]\[3\]
*824 mem\[7\]\[4\]
*825 mem\[7\]\[5\]
*826 mem\[7\]\[6\]
*827 mem\[7\]\[7\]
*828 mem\[8\]\[0\]
*829 mem\[8\]\[1\]
*830 mem\[8\]\[2\]
*831 mem\[8\]\[3\]
*832 mem\[8\]\[4\]
*833 mem\[8\]\[5\]
*834 mem\[8\]\[6\]
*835 mem\[8\]\[7\]
*836 mem\[9\]\[0\]
*837 mem\[9\]\[1\]
*838 mem\[9\]\[2\]
*839 mem\[9\]\[3\]
*840 mem\[9\]\[4\]
*841 mem\[9\]\[5\]
*842 mem\[9\]\[6\]
*843 mem\[9\]\[7\]
*844 net1
*845 net2
*846 net3
*847 net4
*848 net5
*849 net6
*850 net7
*851 stream_index\[0\]
*852 stream_index\[1\]
*853 stream_index\[2\]
*854 stream_index\[3\]
*855 FILLER_0_102
*856 FILLER_0_110
*857 FILLER_0_113
*858 FILLER_0_122
*859 FILLER_0_135
*860 FILLER_0_139
*861 FILLER_0_141
*862 FILLER_0_145
*863 FILLER_0_149
*864 FILLER_0_15
*865 FILLER_0_157
*866 FILLER_0_163
*867 FILLER_0_167
*868 FILLER_0_169
*869 FILLER_0_181
*870 FILLER_0_193
*871 FILLER_0_197
*872 FILLER_0_209
*873 FILLER_0_221
*874 FILLER_0_225
*875 FILLER_0_237
*876 FILLER_0_249
*877 FILLER_0_253
*878 FILLER_0_265
*879 FILLER_0_27
*880 FILLER_0_277
*881 FILLER_0_281
*882 FILLER_0_29
*883 FILLER_0_293
*884 FILLER_0_3
*885 FILLER_0_37
*886 FILLER_0_41
*887 FILLER_0_53
*888 FILLER_0_60
*889 FILLER_0_67
*890 FILLER_0_75
*891 FILLER_0_83
*892 FILLER_0_85
*893 FILLER_0_89
*894 FILLER_10_102
*895 FILLER_10_109
*896 FILLER_10_122
*897 FILLER_10_131
*898 FILLER_10_139
*899 FILLER_10_15
*900 FILLER_10_150
*901 FILLER_10_154
*902 FILLER_10_161
*903 FILLER_10_171
*904 FILLER_10_186
*905 FILLER_10_194
*906 FILLER_10_206
*907 FILLER_10_215
*908 FILLER_10_222
*909 FILLER_10_234
*910 FILLER_10_24
*911 FILLER_10_246
*912 FILLER_10_253
*913 FILLER_10_265
*914 FILLER_10_277
*915 FILLER_10_289
*916 FILLER_10_29
*917 FILLER_10_297
*918 FILLER_10_33
*919 FILLER_10_46
*920 FILLER_10_54
*921 FILLER_10_6
*922 FILLER_10_67
*923 FILLER_10_80
*924 FILLER_10_85
*925 FILLER_11_100
*926 FILLER_11_104
*927 FILLER_11_108
*928 FILLER_11_122
*929 FILLER_11_129
*930 FILLER_11_149
*931 FILLER_11_164
*932 FILLER_11_172
*933 FILLER_11_185
*934 FILLER_11_19
*935 FILLER_11_193
*936 FILLER_11_203
*937 FILLER_11_210
*938 FILLER_11_217
*939 FILLER_11_223
*940 FILLER_11_225
*941 FILLER_11_23
*942 FILLER_11_237
*943 FILLER_11_249
*944 FILLER_11_261
*945 FILLER_11_273
*946 FILLER_11_279
*947 FILLER_11_281
*948 FILLER_11_29
*949 FILLER_11_293
*950 FILLER_11_38
*951 FILLER_11_48
*952 FILLER_11_57
*953 FILLER_11_70
*954 FILLER_11_74
*955 FILLER_11_80
*956 FILLER_11_87
*957 FILLER_12_118
*958 FILLER_12_126
*959 FILLER_12_133
*960 FILLER_12_139
*961 FILLER_12_146
*962 FILLER_12_152
*963 FILLER_12_169
*964 FILLER_12_189
*965 FILLER_12_195
*966 FILLER_12_213
*967 FILLER_12_221
*968 FILLER_12_233
*969 FILLER_12_24
*970 FILLER_12_245
*971 FILLER_12_251
*972 FILLER_12_253
*973 FILLER_12_265
*974 FILLER_12_277
*975 FILLER_12_289
*976 FILLER_12_297
*977 FILLER_12_3
*978 FILLER_12_38
*979 FILLER_12_52
*980 FILLER_12_7
*981 FILLER_12_72
*982 FILLER_12_80
*983 FILLER_12_85
*984 FILLER_12_96
*985 FILLER_13_108
*986 FILLER_13_113
*987 FILLER_13_121
*988 FILLER_13_132
*989 FILLER_13_141
*990 FILLER_13_151
*991 FILLER_13_16
*992 FILLER_13_162
*993 FILLER_13_175
*994 FILLER_13_187
*995 FILLER_13_195
*996 FILLER_13_202
*997 FILLER_13_210
*998 FILLER_13_220
*999 FILLER_13_225
*1000 FILLER_13_237
*1001 FILLER_13_249
*1002 FILLER_13_261
*1003 FILLER_13_273
*1004 FILLER_13_279
*1005 FILLER_13_281
*1006 FILLER_13_29
*1007 FILLER_13_293
*1008 FILLER_13_3
*1009 FILLER_13_37
*1010 FILLER_13_45
*1011 FILLER_13_52
*1012 FILLER_13_62
*1013 FILLER_13_74
*1014 FILLER_13_86
*1015 FILLER_13_9
*1016 FILLER_13_97
*1017 FILLER_14_10
*1018 FILLER_14_107
*1019 FILLER_14_114
*1020 FILLER_14_125
*1021 FILLER_14_135
*1022 FILLER_14_139
*1023 FILLER_14_150
*1024 FILLER_14_154
*1025 FILLER_14_164
*1026 FILLER_14_17
*1027 FILLER_14_172
*1028 FILLER_14_182
*1029 FILLER_14_191
*1030 FILLER_14_195
*1031 FILLER_14_203
*1032 FILLER_14_210
*1033 FILLER_14_230
*1034 FILLER_14_24
*1035 FILLER_14_242
*1036 FILLER_14_250
*1037 FILLER_14_253
*1038 FILLER_14_265
*1039 FILLER_14_277
*1040 FILLER_14_289
*1041 FILLER_14_297
*1042 FILLER_14_3
*1043 FILLER_14_34
*1044 FILLER_14_51
*1045 FILLER_14_66
*1046 FILLER_14_79
*1047 FILLER_14_83
*1048 FILLER_14_88
*1049 FILLER_14_99
*1050 FILLER_15_108
*1051 FILLER_15_123
*1052 FILLER_15_130
*1053 FILLER_15_150
*1054 FILLER_15_154
*1055 FILLER_15_164
*1056 FILLER_15_169
*1057 FILLER_15_173
*1058 FILLER_15_183
*1059 FILLER_15_187
*1060 FILLER_15_19
*1061 FILLER_15_194
*1062 FILLER_15_204
*1063 FILLER_15_210
*1064 FILLER_15_220
*1065 FILLER_15_225
*1066 FILLER_15_233
*1067 FILLER_15_245
*1068 FILLER_15_257
*1069 FILLER_15_26
*1070 FILLER_15_269
*1071 FILLER_15_277
*1072 FILLER_15_281
*1073 FILLER_15_293
*1074 FILLER_15_37
*1075 FILLER_15_52
*1076 FILLER_15_57
*1077 FILLER_15_62
*1078 FILLER_15_68
*1079 FILLER_15_85
*1080 FILLER_15_96
*1081 FILLER_16_105
*1082 FILLER_16_123
*1083 FILLER_16_134
*1084 FILLER_16_146
*1085 FILLER_16_150
*1086 FILLER_16_16
*1087 FILLER_16_167
*1088 FILLER_16_187
*1089 FILLER_16_195
*1090 FILLER_16_203
*1091 FILLER_16_210
*1092 FILLER_16_230
*1093 FILLER_16_24
*1094 FILLER_16_242
*1095 FILLER_16_250
*1096 FILLER_16_253
*1097 FILLER_16_265
*1098 FILLER_16_277
*1099 FILLER_16_289
*1100 FILLER_16_297
*1101 FILLER_16_3
*1102 FILLER_16_34
*1103 FILLER_16_47
*1104 FILLER_16_53
*1105 FILLER_16_70
*1106 FILLER_16_74
*1107 FILLER_16_8
*1108 FILLER_16_80
*1109 FILLER_16_85
*1110 FILLER_16_94
*1111 FILLER_17_108
*1112 FILLER_17_113
*1113 FILLER_17_123
*1114 FILLER_17_138
*1115 FILLER_17_155
*1116 FILLER_17_167
*1117 FILLER_17_178
*1118 FILLER_17_182
*1119 FILLER_17_193
*1120 FILLER_17_20
*1121 FILLER_17_202
*1122 FILLER_17_211
*1123 FILLER_17_218
*1124 FILLER_17_225
*1125 FILLER_17_237
*1126 FILLER_17_24
*1127 FILLER_17_249
*1128 FILLER_17_261
*1129 FILLER_17_273
*1130 FILLER_17_279
*1131 FILLER_17_281
*1132 FILLER_17_29
*1133 FILLER_17_293
*1134 FILLER_17_41
*1135 FILLER_17_52
*1136 FILLER_17_57
*1137 FILLER_17_67
*1138 FILLER_17_73
*1139 FILLER_17_8
*1140 FILLER_17_83
*1141 FILLER_17_95
*1142 FILLER_18_105
*1143 FILLER_18_116
*1144 FILLER_18_136
*1145 FILLER_18_141
*1146 FILLER_18_145
*1147 FILLER_18_162
*1148 FILLER_18_170
*1149 FILLER_18_176
*1150 FILLER_18_18
*1151 FILLER_18_187
*1152 FILLER_18_195
*1153 FILLER_18_208
*1154 FILLER_18_221
*1155 FILLER_18_234
*1156 FILLER_18_241
*1157 FILLER_18_249
*1158 FILLER_18_253
*1159 FILLER_18_26
*1160 FILLER_18_265
*1161 FILLER_18_277
*1162 FILLER_18_289
*1163 FILLER_18_297
*1164 FILLER_18_3
*1165 FILLER_18_39
*1166 FILLER_18_52
*1167 FILLER_18_60
*1168 FILLER_18_7
*1169 FILLER_18_71
*1170 FILLER_18_79
*1171 FILLER_18_83
*1172 FILLER_18_90
*1173 FILLER_18_94
*1174 FILLER_19_108
*1175 FILLER_19_129
*1176 FILLER_19_143
*1177 FILLER_19_154
*1178 FILLER_19_164
*1179 FILLER_19_185
*1180 FILLER_19_189
*1181 FILLER_19_19
*1182 FILLER_19_196
*1183 FILLER_19_216
*1184 FILLER_19_241
*1185 FILLER_19_253
*1186 FILLER_19_265
*1187 FILLER_19_277
*1188 FILLER_19_281
*1189 FILLER_19_293
*1190 FILLER_19_31
*1191 FILLER_19_40
*1192 FILLER_19_52
*1193 FILLER_19_73
*1194 FILLER_19_87
*1195 FILLER_19_94
*1196 FILLER_1_108
*1197 FILLER_1_113
*1198 FILLER_1_135
*1199 FILLER_1_141
*1200 FILLER_1_158
*1201 FILLER_1_166
*1202 FILLER_1_169
*1203 FILLER_1_188
*1204 FILLER_1_200
*1205 FILLER_1_212
*1206 FILLER_1_225
*1207 FILLER_1_237
*1208 FILLER_1_249
*1209 FILLER_1_261
*1210 FILLER_1_273
*1211 FILLER_1_279
*1212 FILLER_1_281
*1213 FILLER_1_293
*1214 FILLER_1_3
*1215 FILLER_1_31
*1216 FILLER_1_51
*1217 FILLER_1_55
*1218 FILLER_1_57
*1219 FILLER_1_67
*1220 FILLER_1_87
*1221 FILLER_1_91
*1222 FILLER_20_108
*1223 FILLER_20_122
*1224 FILLER_20_13
*1225 FILLER_20_136
*1226 FILLER_20_144
*1227 FILLER_20_158
*1228 FILLER_20_162
*1229 FILLER_20_173
*1230 FILLER_20_181
*1231 FILLER_20_192
*1232 FILLER_20_203
*1233 FILLER_20_212
*1234 FILLER_20_220
*1235 FILLER_20_227
*1236 FILLER_20_239
*1237 FILLER_20_24
*1238 FILLER_20_251
*1239 FILLER_20_253
*1240 FILLER_20_265
*1241 FILLER_20_277
*1242 FILLER_20_289
*1243 FILLER_20_297
*1244 FILLER_20_32
*1245 FILLER_20_46
*1246 FILLER_20_54
*1247 FILLER_20_68
*1248 FILLER_20_79
*1249 FILLER_20_83
*1250 FILLER_20_93
*1251 FILLER_20_97
*1252 FILLER_21_108
*1253 FILLER_21_120
*1254 FILLER_21_136
*1255 FILLER_21_150
*1256 FILLER_21_16
*1257 FILLER_21_164
*1258 FILLER_21_179
*1259 FILLER_21_183
*1260 FILLER_21_193
*1261 FILLER_21_202
*1262 FILLER_21_210
*1263 FILLER_21_220
*1264 FILLER_21_228
*1265 FILLER_21_240
*1266 FILLER_21_252
*1267 FILLER_21_26
*1268 FILLER_21_264
*1269 FILLER_21_276
*1270 FILLER_21_281
*1271 FILLER_21_293
*1272 FILLER_21_3
*1273 FILLER_21_39
*1274 FILLER_21_49
*1275 FILLER_21_55
*1276 FILLER_21_73
*1277 FILLER_21_8
*1278 FILLER_21_83
*1279 FILLER_21_94
*1280 FILLER_22_101
*1281 FILLER_22_115
*1282 FILLER_22_122
*1283 FILLER_22_13
*1284 FILLER_22_136
*1285 FILLER_22_144
*1286 FILLER_22_158
*1287 FILLER_22_172
*1288 FILLER_22_192
*1289 FILLER_22_203
*1290 FILLER_22_211
*1291 FILLER_22_22
*1292 FILLER_22_229
*1293 FILLER_22_241
*1294 FILLER_22_249
*1295 FILLER_22_253
*1296 FILLER_22_265
*1297 FILLER_22_277
*1298 FILLER_22_289
*1299 FILLER_22_29
*1300 FILLER_22_297
*1301 FILLER_22_33
*1302 FILLER_22_44
*1303 FILLER_22_52
*1304 FILLER_22_6
*1305 FILLER_22_63
*1306 FILLER_22_71
*1307 FILLER_22_80
*1308 FILLER_22_93
*1309 FILLER_23_105
*1310 FILLER_23_111
*1311 FILLER_23_119
*1312 FILLER_23_131
*1313 FILLER_23_145
*1314 FILLER_23_149
*1315 FILLER_23_157
*1316 FILLER_23_164
*1317 FILLER_23_169
*1318 FILLER_23_183
*1319 FILLER_23_19
*1320 FILLER_23_193
*1321 FILLER_23_205
*1322 FILLER_23_220
*1323 FILLER_23_225
*1324 FILLER_23_237
*1325 FILLER_23_249
*1326 FILLER_23_261
*1327 FILLER_23_273
*1328 FILLER_23_279
*1329 FILLER_23_281
*1330 FILLER_23_293
*1331 FILLER_23_31
*1332 FILLER_23_46
*1333 FILLER_23_54
*1334 FILLER_23_57
*1335 FILLER_23_62
*1336 FILLER_23_75
*1337 FILLER_23_83
*1338 FILLER_23_94
*1339 FILLER_24_11
*1340 FILLER_24_111
*1341 FILLER_24_121
*1342 FILLER_24_125
*1343 FILLER_24_136
*1344 FILLER_24_148
*1345 FILLER_24_152
*1346 FILLER_24_163
*1347 FILLER_24_173
*1348 FILLER_24_187
*1349 FILLER_24_19
*1350 FILLER_24_195
*1351 FILLER_24_202
*1352 FILLER_24_209
*1353 FILLER_24_213
*1354 FILLER_24_230
*1355 FILLER_24_242
*1356 FILLER_24_250
*1357 FILLER_24_253
*1358 FILLER_24_265
*1359 FILLER_24_27
*1360 FILLER_24_277
*1361 FILLER_24_289
*1362 FILLER_24_29
*1363 FILLER_24_297
*1364 FILLER_24_3
*1365 FILLER_24_34
*1366 FILLER_24_45
*1367 FILLER_24_57
*1368 FILLER_24_7
*1369 FILLER_24_77
*1370 FILLER_24_83
*1371 FILLER_24_95
*1372 FILLER_25_10
*1373 FILLER_25_101
*1374 FILLER_25_108
*1375 FILLER_25_113
*1376 FILLER_25_126
*1377 FILLER_25_135
*1378 FILLER_25_14
*1379 FILLER_25_146
*1380 FILLER_25_156
*1381 FILLER_25_164
*1382 FILLER_25_169
*1383 FILLER_25_178
*1384 FILLER_25_182
*1385 FILLER_25_199
*1386 FILLER_25_212
*1387 FILLER_25_219
*1388 FILLER_25_223
*1389 FILLER_25_225
*1390 FILLER_25_237
*1391 FILLER_25_249
*1392 FILLER_25_25
*1393 FILLER_25_261
*1394 FILLER_25_273
*1395 FILLER_25_279
*1396 FILLER_25_281
*1397 FILLER_25_293
*1398 FILLER_25_33
*1399 FILLER_25_43
*1400 FILLER_25_52
*1401 FILLER_25_6
*1402 FILLER_25_66
*1403 FILLER_25_75
*1404 FILLER_25_87
*1405 FILLER_25_93
*1406 FILLER_26_110
*1407 FILLER_26_12
*1408 FILLER_26_124
*1409 FILLER_26_136
*1410 FILLER_26_150
*1411 FILLER_26_154
*1412 FILLER_26_161
*1413 FILLER_26_167
*1414 FILLER_26_173
*1415 FILLER_26_181
*1416 FILLER_26_192
*1417 FILLER_26_197
*1418 FILLER_26_215
*1419 FILLER_26_227
*1420 FILLER_26_239
*1421 FILLER_26_24
*1422 FILLER_26_251
*1423 FILLER_26_253
*1424 FILLER_26_265
*1425 FILLER_26_277
*1426 FILLER_26_289
*1427 FILLER_26_297
*1428 FILLER_26_3
*1429 FILLER_26_32
*1430 FILLER_26_46
*1431 FILLER_26_66
*1432 FILLER_26_74
*1433 FILLER_26_80
*1434 FILLER_26_94
*1435 FILLER_27_108
*1436 FILLER_27_120
*1437 FILLER_27_124
*1438 FILLER_27_134
*1439 FILLER_27_145
*1440 FILLER_27_160
*1441 FILLER_27_175
*1442 FILLER_27_184
*1443 FILLER_27_19
*1444 FILLER_27_193
*1445 FILLER_27_200
*1446 FILLER_27_207
*1447 FILLER_27_220
*1448 FILLER_27_241
*1449 FILLER_27_253
*1450 FILLER_27_265
*1451 FILLER_27_277
*1452 FILLER_27_281
*1453 FILLER_27_293
*1454 FILLER_27_33
*1455 FILLER_27_47
*1456 FILLER_27_55
*1457 FILLER_27_57
*1458 FILLER_27_65
*1459 FILLER_27_78
*1460 FILLER_27_86
*1461 FILLER_27_95
*1462 FILLER_28_103
*1463 FILLER_28_112
*1464 FILLER_28_13
*1465 FILLER_28_136
*1466 FILLER_28_147
*1467 FILLER_28_151
*1468 FILLER_28_159
*1469 FILLER_28_176
*1470 FILLER_28_182
*1471 FILLER_28_192
*1472 FILLER_28_200
*1473 FILLER_28_207
*1474 FILLER_28_214
*1475 FILLER_28_221
*1476 FILLER_28_23
*1477 FILLER_28_233
*1478 FILLER_28_245
*1479 FILLER_28_251
*1480 FILLER_28_253
*1481 FILLER_28_265
*1482 FILLER_28_27
*1483 FILLER_28_277
*1484 FILLER_28_289
*1485 FILLER_28_297
*1486 FILLER_28_3
*1487 FILLER_28_32
*1488 FILLER_28_43
*1489 FILLER_28_54
*1490 FILLER_28_7
*1491 FILLER_28_78
*1492 FILLER_28_90
*1493 FILLER_29_100
*1494 FILLER_29_108
*1495 FILLER_29_119
*1496 FILLER_29_12
*1497 FILLER_29_123
*1498 FILLER_29_133
*1499 FILLER_29_141
*1500 FILLER_29_151
*1501 FILLER_29_160
*1502 FILLER_29_185
*1503 FILLER_29_19
*1504 FILLER_29_205
*1505 FILLER_29_220
*1506 FILLER_29_225
*1507 FILLER_29_237
*1508 FILLER_29_249
*1509 FILLER_29_261
*1510 FILLER_29_273
*1511 FILLER_29_279
*1512 FILLER_29_28
*1513 FILLER_29_281
*1514 FILLER_29_293
*1515 FILLER_29_3
*1516 FILLER_29_36
*1517 FILLER_29_48
*1518 FILLER_29_66
*1519 FILLER_29_74
*1520 FILLER_29_83
*1521 FILLER_29_94
*1522 FILLER_2_121
*1523 FILLER_2_129
*1524 FILLER_2_13
*1525 FILLER_2_134
*1526 FILLER_2_141
*1527 FILLER_2_153
*1528 FILLER_2_173
*1529 FILLER_2_186
*1530 FILLER_2_194
*1531 FILLER_2_197
*1532 FILLER_2_209
*1533 FILLER_2_221
*1534 FILLER_2_233
*1535 FILLER_2_24
*1536 FILLER_2_245
*1537 FILLER_2_251
*1538 FILLER_2_253
*1539 FILLER_2_265
*1540 FILLER_2_277
*1541 FILLER_2_289
*1542 FILLER_2_29
*1543 FILLER_2_297
*1544 FILLER_2_37
*1545 FILLER_2_48
*1546 FILLER_2_52
*1547 FILLER_2_6
*1548 FILLER_2_69
*1549 FILLER_2_77
*1550 FILLER_2_83
*1551 FILLER_2_85
*1552 FILLER_2_89
*1553 FILLER_2_99
*1554 FILLER_30_108
*1555 FILLER_30_118
*1556 FILLER_30_122
*1557 FILLER_30_131
*1558 FILLER_30_139
*1559 FILLER_30_141
*1560 FILLER_30_152
*1561 FILLER_30_172
*1562 FILLER_30_179
*1563 FILLER_30_186
*1564 FILLER_30_19
*1565 FILLER_30_194
*1566 FILLER_30_197
*1567 FILLER_30_217
*1568 FILLER_30_237
*1569 FILLER_30_249
*1570 FILLER_30_253
*1571 FILLER_30_265
*1572 FILLER_30_27
*1573 FILLER_30_277
*1574 FILLER_30_289
*1575 FILLER_30_297
*1576 FILLER_30_36
*1577 FILLER_30_43
*1578 FILLER_30_6
*1579 FILLER_30_63
*1580 FILLER_30_67
*1581 FILLER_30_77
*1582 FILLER_30_83
*1583 FILLER_30_85
*1584 FILLER_30_94
*1585 FILLER_30_98
*1586 FILLER_31_106
*1587 FILLER_31_113
*1588 FILLER_31_124
*1589 FILLER_31_132
*1590 FILLER_31_140
*1591 FILLER_31_151
*1592 FILLER_31_164
*1593 FILLER_31_173
*1594 FILLER_31_177
*1595 FILLER_31_188
*1596 FILLER_31_19
*1597 FILLER_31_196
*1598 FILLER_31_208
*1599 FILLER_31_219
*1600 FILLER_31_223
*1601 FILLER_31_225
*1602 FILLER_31_237
*1603 FILLER_31_249
*1604 FILLER_31_26
*1605 FILLER_31_261
*1606 FILLER_31_273
*1607 FILLER_31_279
*1608 FILLER_31_281
*1609 FILLER_31_293
*1610 FILLER_31_46
*1611 FILLER_31_54
*1612 FILLER_31_57
*1613 FILLER_31_79
*1614 FILLER_31_86
*1615 FILLER_31_95
*1616 FILLER_32_110
*1617 FILLER_32_125
*1618 FILLER_32_136
*1619 FILLER_32_14
*1620 FILLER_32_148
*1621 FILLER_32_156
*1622 FILLER_32_172
*1623 FILLER_32_192
*1624 FILLER_32_207
*1625 FILLER_32_220
*1626 FILLER_32_233
*1627 FILLER_32_24
*1628 FILLER_32_245
*1629 FILLER_32_251
*1630 FILLER_32_253
*1631 FILLER_32_265
*1632 FILLER_32_277
*1633 FILLER_32_289
*1634 FILLER_32_297
*1635 FILLER_32_3
*1636 FILLER_32_35
*1637 FILLER_32_43
*1638 FILLER_32_57
*1639 FILLER_32_7
*1640 FILLER_32_71
*1641 FILLER_32_75
*1642 FILLER_32_80
*1643 FILLER_32_92
*1644 FILLER_33_106
*1645 FILLER_33_119
*1646 FILLER_33_133
*1647 FILLER_33_144
*1648 FILLER_33_155
*1649 FILLER_33_163
*1650 FILLER_33_167
*1651 FILLER_33_185
*1652 FILLER_33_193
*1653 FILLER_33_20
*1654 FILLER_33_213
*1655 FILLER_33_220
*1656 FILLER_33_228
*1657 FILLER_33_240
*1658 FILLER_33_252
*1659 FILLER_33_264
*1660 FILLER_33_276
*1661 FILLER_33_28
*1662 FILLER_33_281
*1663 FILLER_33_293
*1664 FILLER_33_35
*1665 FILLER_33_49
*1666 FILLER_33_55
*1667 FILLER_33_57
*1668 FILLER_33_6
*1669 FILLER_33_66
*1670 FILLER_33_86
*1671 FILLER_33_97
*1672 FILLER_34_107
*1673 FILLER_34_120
*1674 FILLER_34_128
*1675 FILLER_34_13
*1676 FILLER_34_136
*1677 FILLER_34_148
*1678 FILLER_34_172
*1679 FILLER_34_187
*1680 FILLER_34_195
*1681 FILLER_34_206
*1682 FILLER_34_214
*1683 FILLER_34_231
*1684 FILLER_34_24
*1685 FILLER_34_243
*1686 FILLER_34_251
*1687 FILLER_34_253
*1688 FILLER_34_265
*1689 FILLER_34_277
*1690 FILLER_34_289
*1691 FILLER_34_297
*1692 FILLER_34_3
*1693 FILLER_34_32
*1694 FILLER_34_46
*1695 FILLER_34_66
*1696 FILLER_34_80
*1697 FILLER_34_85
*1698 FILLER_34_93
*1699 FILLER_35_103
*1700 FILLER_35_108
*1701 FILLER_35_113
*1702 FILLER_35_131
*1703 FILLER_35_139
*1704 FILLER_35_147
*1705 FILLER_35_15
*1706 FILLER_35_157
*1707 FILLER_35_165
*1708 FILLER_35_169
*1709 FILLER_35_180
*1710 FILLER_35_20
*1711 FILLER_35_200
*1712 FILLER_35_213
*1713 FILLER_35_220
*1714 FILLER_35_228
*1715 FILLER_35_240
*1716 FILLER_35_252
*1717 FILLER_35_264
*1718 FILLER_35_276
*1719 FILLER_35_281
*1720 FILLER_35_293
*1721 FILLER_35_3
*1722 FILLER_35_40
*1723 FILLER_35_44
*1724 FILLER_35_52
*1725 FILLER_35_67
*1726 FILLER_35_75
*1727 FILLER_35_85
*1728 FILLER_35_9
*1729 FILLER_35_99
*1730 FILLER_36_100
*1731 FILLER_36_108
*1732 FILLER_36_119
*1733 FILLER_36_133
*1734 FILLER_36_139
*1735 FILLER_36_141
*1736 FILLER_36_153
*1737 FILLER_36_160
*1738 FILLER_36_164
*1739 FILLER_36_181
*1740 FILLER_36_189
*1741 FILLER_36_195
*1742 FILLER_36_197
*1743 FILLER_36_215
*1744 FILLER_36_228
*1745 FILLER_36_24
*1746 FILLER_36_240
*1747 FILLER_36_253
*1748 FILLER_36_265
*1749 FILLER_36_277
*1750 FILLER_36_289
*1751 FILLER_36_29
*1752 FILLER_36_297
*1753 FILLER_36_3
*1754 FILLER_36_42
*1755 FILLER_36_59
*1756 FILLER_36_68
*1757 FILLER_36_80
*1758 FILLER_36_85
*1759 FILLER_36_9
*1760 FILLER_37_108
*1761 FILLER_37_121
*1762 FILLER_37_129
*1763 FILLER_37_143
*1764 FILLER_37_150
*1765 FILLER_37_164
*1766 FILLER_37_174
*1767 FILLER_37_180
*1768 FILLER_37_191
*1769 FILLER_37_206
*1770 FILLER_37_219
*1771 FILLER_37_223
*1772 FILLER_37_241
*1773 FILLER_37_25
*1774 FILLER_37_253
*1775 FILLER_37_265
*1776 FILLER_37_277
*1777 FILLER_37_281
*1778 FILLER_37_293
*1779 FILLER_37_3
*1780 FILLER_37_45
*1781 FILLER_37_52
*1782 FILLER_37_61
*1783 FILLER_37_74
*1784 FILLER_37_84
*1785 FILLER_37_96
*1786 FILLER_38_100
*1787 FILLER_38_107
*1788 FILLER_38_116
*1789 FILLER_38_133
*1790 FILLER_38_139
*1791 FILLER_38_147
*1792 FILLER_38_159
*1793 FILLER_38_16
*1794 FILLER_38_168
*1795 FILLER_38_175
*1796 FILLER_38_183