*SPEF "ieee 1481-1999"
*DESIGN "jar_pi"
*DATE "11:11:11 Fri 11 11, 1111"
*VENDOR "OpenRCX"
*PROGRAM "Parallel Extraction"
*VERSION "1.0"
*DESIGN_FLOW "NAME_SCOPE LOCAL" "PIN_CAP NONE"
*DIVIDER /
*DELIMITER :
*BUS_DELIMITER []
*T_UNIT 1 NS
*C_UNIT 1 PF
*R_UNIT 1 OHM
*L_UNIT 1 HENRY

*NAME_MAP
*1 io_in[0]
*2 io_in[1]
*3 io_in[2]
*4 io_in[3]
*5 io_in[4]
*6 io_in[5]
*7 io_in[6]
*8 io_in[7]
*9 io_out[0]
*10 io_out[1]
*11 io_out[2]
*12 io_out[3]
*13 io_out[4]
*14 io_out[5]
*15 io_out[6]
*16 io_out[7]
*19 _0000_
*20 _0001_
*21 _0002_
*22 _0003_
*23 _0004_
*24 _0005_
*25 _0006_
*26 _0007_
*27 _0008_
*28 _0009_
*29 _0010_
*30 _0011_
*31 _0012_
*32 _0013_
*33 _0014_
*34 _0015_
*35 _0016_
*36 _0017_
*37 _0018_
*38 _0019_
*39 _0020_
*40 _0021_
*41 _0022_
*42 _0023_
*43 _0024_
*44 _0025_
*45 _0026_
*46 _0027_
*47 _0028_
*48 _0029_
*49 _0030_
*50 _0031_
*51 _0032_
*52 _0033_
*53 _0034_
*54 _0035_
*55 _0036_
*56 _0037_
*57 _0038_
*58 _0039_
*59 _0040_
*60 _0041_
*61 _0042_
*62 _0043_
*63 _0044_
*64 _0045_
*65 _0046_
*66 _0047_
*67 _0048_
*68 _0049_
*69 _0050_
*70 _0051_
*71 _0052_
*72 _0053_
*73 _0054_
*74 _0055_
*75 _0056_
*76 _0057_
*77 _0058_
*78 _0059_
*79 _0060_
*80 _0061_
*81 _0062_
*82 _0063_
*83 _0064_
*84 _0065_
*85 _0066_
*86 _0067_
*87 _0068_
*88 _0069_
*89 _0070_
*90 _0071_
*91 _0072_
*92 _0073_
*93 _0074_
*94 _0075_
*95 _0076_
*96 _0077_
*97 _0078_
*98 _0079_
*99 _0080_
*100 _0081_
*101 _0082_
*102 _0083_
*103 _0084_
*104 _0085_
*105 _0086_
*106 _0087_
*107 _0088_
*108 _0089_
*109 _0090_
*110 _0091_
*111 _0092_
*112 _0093_
*113 _0094_
*114 _0095_
*115 _0096_
*116 _0097_
*117 _0098_
*118 _0099_
*119 _0100_
*120 _0101_
*121 _0102_
*122 _0103_
*123 _0104_
*124 _0105_
*125 _0106_
*126 _0107_
*127 _0108_
*128 _0109_
*129 _0110_
*130 _0111_
*131 _0112_
*132 _0113_
*133 _0114_
*134 _0115_
*135 _0116_
*136 _0117_
*137 _0118_
*138 _0119_
*139 _0120_
*140 _0121_
*141 _0122_
*142 _0123_
*143 _0124_
*144 _0125_
*145 _0126_
*146 _0127_
*147 _0128_
*148 _0129_
*149 _0130_
*150 _0131_
*151 _0132_
*152 _0133_
*153 _0134_
*154 _0135_
*155 _0136_
*156 _0137_
*157 _0138_
*158 _0139_
*159 _0140_
*160 _0141_
*161 _0142_
*162 _0143_
*163 _0144_
*164 _0145_
*165 _0146_
*166 _0147_
*167 _0148_
*168 _0149_
*169 _0150_
*170 _0151_
*171 _0152_
*172 _0153_
*173 _0154_
*174 _0155_
*175 _0156_
*176 _0157_
*177 _0158_
*178 _0159_
*179 _0160_
*180 _0161_
*181 _0162_
*182 _0163_
*183 _0164_
*184 _0165_
*185 _0166_
*186 _0167_
*187 _0168_
*188 _0169_
*189 _0170_
*190 _0171_
*191 _0172_
*192 _0173_
*193 _0174_
*194 _0175_
*195 _0176_
*196 _0177_
*197 _0178_
*198 _0179_
*199 _0180_
*200 _0181_
*201 _0182_
*202 _0183_
*203 _0184_
*204 _0185_
*205 _0186_
*206 _0187_
*207 _0188_
*208 _0189_
*209 _0190_
*210 _0191_
*211 _0192_
*212 _0193_
*213 _0194_
*214 _0195_
*215 _0196_
*216 _0197_
*217 _0198_
*218 _0199_
*219 _0200_
*220 _0201_
*221 _0202_
*222 _0203_
*223 _0204_
*224 _0205_
*225 _0206_
*226 _0207_
*227 _0208_
*228 _0209_
*229 _0210_
*230 _0211_
*231 _0212_
*232 _0213_
*233 _0214_
*234 _0215_
*235 _0216_
*236 _0217_
*237 _0218_
*238 _0219_
*239 _0220_
*240 _0221_
*241 _0222_
*242 _0223_
*243 _0224_
*244 _0225_
*245 _0226_
*246 _0227_
*247 _0228_
*248 _0229_
*249 _0230_
*250 _0231_
*251 _0232_
*252 _0233_
*253 _0234_
*254 _0235_
*255 _0236_
*256 _0237_
*257 _0238_
*258 _0239_
*259 _0240_
*260 _0241_
*261 _0242_
*262 _0243_
*263 _0244_
*264 _0245_
*265 _0246_
*266 _0247_
*267 _0248_
*268 _0249_
*269 _0250_
*270 _0251_
*271 _0252_
*272 _0253_
*273 _0254_
*274 _0255_
*275 _0256_
*276 _0257_
*277 _0258_
*278 _0259_
*279 _0260_
*280 _0261_
*281 _0262_
*282 _0263_
*283 _0264_
*284 _0265_
*285 _0266_
*286 _0267_
*287 _0268_
*288 _0269_
*289 _0270_
*290 _0271_
*291 _0272_
*292 _0273_
*293 _0274_
*294 _0275_
*295 _0276_
*296 _0277_
*297 _0278_
*298 _0279_
*299 _0280_
*300 _0281_
*301 _0282_
*302 _0283_
*303 _0284_
*304 _0285_
*305 _0286_
*306 _0287_
*307 _0288_
*308 _0289_
*309 _0290_
*310 _0291_
*311 _0292_
*312 _0293_
*313 _0294_
*314 _0295_
*315 _0296_
*316 _0297_
*317 _0298_
*318 _0299_
*319 _0300_
*320 _0301_
*321 _0302_
*322 _0303_
*323 _0304_
*324 _0305_
*325 _0306_
*326 _0307_
*327 _0308_
*328 _0309_
*329 _0310_
*330 _0311_
*331 _0312_
*332 _0313_
*333 _0314_
*334 _0315_
*335 _0316_
*336 _0317_
*337 _0318_
*338 _0319_
*339 _0320_
*340 _0321_
*341 _0322_
*342 _0323_
*343 _0324_
*344 _0325_
*345 _0326_
*346 _0327_
*347 _0328_
*348 _0329_
*349 _0330_
*350 _0331_
*351 _0332_
*352 _0333_
*353 _0334_
*354 _0335_
*355 _0336_
*356 _0337_
*357 _0338_
*358 _0339_
*359 _0340_
*360 _0341_
*361 _0342_
*362 _0343_
*363 _0344_
*364 _0345_
*365 _0346_
*366 _0347_
*367 _0348_
*368 _0349_
*369 _0350_
*370 _0351_
*371 _0352_
*372 _0353_
*373 _0354_
*374 _0355_
*375 _0356_
*376 _0357_
*377 _0358_
*378 _0359_
*379 _0360_
*380 _0361_
*381 _0362_
*382 _0363_
*383 _0364_
*384 _0365_
*385 _0366_
*386 _0367_
*387 _0368_
*388 _0369_
*389 _0370_
*390 _0371_
*391 _0372_
*392 _0373_
*393 _0374_
*394 _0375_
*395 _0376_
*396 _0377_
*397 _0378_
*398 _0379_
*399 _0380_
*400 _0381_
*401 _0382_
*402 _0383_
*403 _0384_
*404 _0385_
*405 _0386_
*406 _0387_
*407 _0388_
*408 _0389_
*409 _0390_
*410 _0391_
*411 _0392_
*412 _0393_
*413 _0394_
*414 _0395_
*415 _0396_
*416 _0397_
*417 _0398_
*418 _0399_
*419 _0400_
*420 _0401_
*421 _0402_
*422 _0403_
*423 _0404_
*424 _0405_
*425 _0406_
*426 _0407_
*427 _0408_
*428 _0409_
*429 _0410_
*430 _0411_
*431 _0412_
*432 _0413_
*433 _0414_
*434 _0415_
*435 _0416_
*436 _0417_
*437 _0418_
*438 _0419_
*439 _0420_
*440 _0421_
*441 _0422_
*442 _0423_
*443 _0424_
*444 _0425_
*445 _0426_
*446 _0427_
*447 _0428_
*448 _0429_
*449 _0430_
*450 _0431_
*451 _0432_
*452 _0433_
*453 _0434_
*454 _0435_
*455 _0436_
*456 _0437_
*457 _0438_
*458 _0439_
*459 _0440_
*460 _0441_
*461 _0442_
*462 _0443_
*463 _0444_
*464 _0445_
*465 _0446_
*466 _0447_
*467 _0448_
*468 _0449_
*469 _0450_
*470 _0451_
*471 _0452_
*472 _0453_
*473 _0454_
*474 _0455_
*475 _0456_
*476 _0457_
*477 _0458_
*478 _0459_
*479 _0460_
*480 _0461_
*481 _0462_
*482 _0463_
*483 _0464_
*484 _0465_
*485 _0466_
*486 _0467_
*487 _0468_
*488 _0469_
*489 _0470_
*490 _0471_
*491 _0472_
*492 _0473_
*493 _0474_
*494 _0475_
*495 _0476_
*496 _0477_
*497 _0478_
*498 _0479_
*499 _0480_
*500 _0481_
*501 _0482_
*502 _0483_
*503 _0484_
*504 _0485_
*505 _0486_
*506 _0487_
*507 _0488_
*508 _0489_
*509 _0490_
*510 _0491_
*511 _0492_
*512 _0493_
*513 _0494_
*514 _0495_
*515 _0496_
*516 _0497_
*517 _0498_
*518 _0499_
*519 _0500_
*520 _0501_
*521 _0502_
*522 _0503_
*523 _0504_
*524 _0505_
*525 _0506_
*526 _0507_
*527 _0508_
*528 _0509_
*529 _0510_
*530 _0511_
*531 _0512_
*532 _0513_
*533 _0514_
*534 _0515_
*535 _0516_
*536 _0517_
*537 _0518_
*538 _0519_
*539 _0520_
*540 _0521_
*541 _0522_
*542 _0523_
*543 _0524_
*544 _0525_
*545 _0526_
*546 _0527_
*547 _0528_
*548 _0529_
*549 _0530_
*550 _0531_
*551 _0532_
*552 _0533_
*553 _0534_
*554 _0535_
*555 _0536_
*556 _0537_
*557 _0538_
*558 _0539_
*559 _0540_
*560 _0541_
*561 _0542_
*562 _0543_
*563 _0544_
*564 _0545_
*565 _0546_
*566 _0547_
*567 _0548_
*568 _0549_
*569 _0550_
*570 _0551_
*571 _0552_
*572 _0553_
*573 _0554_
*574 _0555_
*575 _0556_
*576 _0557_
*577 _0558_
*578 _0559_
*579 _0560_
*580 _0561_
*581 _0562_
*582 _0563_
*583 _0564_
*584 _0565_
*585 _0566_
*586 _0567_
*587 _0568_
*588 _0569_
*589 _0570_
*590 _0571_
*591 _0572_
*592 _0573_
*593 _0574_
*594 _0575_
*595 _0576_
*596 _0577_
*597 _0578_
*598 _0579_
*599 _0580_
*600 _0581_
*601 _0582_
*602 _0583_
*603 _0584_
*604 _0585_
*605 _0586_
*606 _0587_
*607 _0588_
*608 _0589_
*609 _0590_
*610 _0591_
*611 _0592_
*612 _0593_
*613 _0594_
*614 _0595_
*615 _0596_
*616 _0597_
*617 _0598_
*618 _0599_
*619 _0600_
*620 _0601_
*621 _0602_
*622 _0603_
*623 _0604_
*624 _0605_
*625 _0606_
*626 _0607_
*627 _0608_
*628 _0609_
*629 _0610_
*630 _0611_
*631 _0612_
*632 _0613_
*633 _0614_
*634 _0615_
*635 _0616_
*636 _0617_
*637 _0618_
*638 _0619_
*639 _0620_
*640 _0621_
*641 _0622_
*642 _0623_
*643 _0624_
*644 _0625_
*645 _0626_
*646 _0627_
*647 _0628_
*648 _0629_
*649 _0630_
*650 _0631_
*651 _0632_
*652 _0633_
*653 _0634_
*654 _0635_
*655 _0636_
*656 _0637_
*657 _0638_
*658 _0639_
*659 _0640_
*660 _0641_
*661 _0642_
*662 _0643_
*663 _0644_
*664 _0645_
*665 _0646_
*666 _0647_
*667 _0648_
*668 _0649_
*669 _0650_
*670 _0651_
*671 _0652_
*672 _0653_
*673 _0654_
*674 _0655_
*675 _0656_
*676 _0657_
*677 _0658_
*678 _0659_
*679 _0660_
*680 _0661_
*681 _0662_
*682 _0663_
*683 _0664_
*684 _0665_
*685 _0666_
*686 _0667_
*687 _0668_
*688 _0669_
*689 _0670_
*690 _0671_
*691 _0672_
*692 _0673_
*693 _0674_
*694 _0675_
*695 _0676_
*696 _0677_
*697 _0678_
*698 _0679_
*699 _0680_
*700 _0681_
*701 _0682_
*702 _0683_
*703 _0684_
*704 _0685_
*705 _0686_
*706 _0687_
*707 _0688_
*708 _0689_
*709 _0690_
*710 _0691_
*711 _0692_
*712 _0693_
*713 _0694_
*714 _0695_
*715 _0696_
*716 _0697_
*717 _0698_
*718 _0699_
*719 _0700_
*720 _0701_
*721 _0702_
*722 _0703_
*723 _0704_
*724 _0705_
*725 _0706_
*726 _0707_
*727 _0708_
*728 _0709_
*729 _0710_
*730 _0711_
*731 _0712_
*732 _0713_
*733 _0714_
*734 _0715_
*735 _0716_
*736 _0717_
*737 _0718_
*738 _0719_
*739 _0720_
*740 _0721_
*741 _0722_
*742 _0723_
*743 _0724_
*744 _0725_
*745 _0726_
*746 _0727_
*747 _0728_
*748 _0729_
*749 _0730_
*750 _0731_
*751 _0732_
*752 _0733_
*753 _0734_
*754 _0735_
*755 _0736_
*756 _0737_
*757 _0738_
*758 _0739_
*759 _0740_
*760 _0741_
*761 _0742_
*762 _0743_
*763 _0744_
*764 _0745_
*765 _0746_
*766 _0747_
*767 _0748_
*768 _0749_
*769 _0750_
*770 _0751_
*771 _0752_
*772 _0753_
*773 _0754_
*774 _0755_
*775 _0756_
*776 _0757_
*777 _0758_
*778 _0759_
*779 _0760_
*780 _0761_
*781 _0762_
*782 _0763_
*783 _0764_
*784 _0765_
*785 _0766_
*786 _0767_
*787 _0768_
*788 _0769_
*789 _0770_
*790 _0771_
*791 _0772_
*792 _0773_
*793 _0774_
*794 _0775_
*795 _0776_
*796 _0777_
*797 _0778_
*798 _0779_
*799 _0780_
*800 _0781_
*801 _0782_
*802 _0783_
*803 _0784_
*804 _0785_
*805 _0786_
*806 _0787_
*807 _0788_
*808 _0789_
*809 _0790_
*810 _0791_
*811 _0792_
*812 _0793_
*813 _0794_
*814 _0795_
*815 _0796_
*816 _0797_
*817 _0798_
*818 _0799_
*819 _0800_
*820 _0801_
*821 _0802_
*822 _0803_
*823 _0804_
*824 _0805_
*825 _0806_
*826 _0807_
*827 _0808_
*828 _0809_
*829 _0810_
*830 _0811_
*831 _0812_
*832 _0813_
*833 _0814_
*834 _0815_
*835 _0816_
*836 _0817_
*837 _0818_
*838 _0819_
*839 _0820_
*840 _0821_
*841 _0822_
*842 _0823_
*843 _0824_
*844 _0825_
*845 _0826_
*846 _0827_
*847 _0828_
*848 _0829_
*849 _0830_
*850 _0831_
*851 _0832_
*852 _0833_
*853 _0834_
*854 _0835_
*855 _0836_
*856 _0837_
*857 _0838_
*858 _0839_
*859 _0840_
*860 _0841_
*861 _0842_
*862 _0843_
*863 _0844_
*864 _0845_
*865 _0846_
*866 _0847_
*867 _0848_
*868 _0849_
*869 _0850_
*870 _0851_
*871 _0852_
*872 _0853_
*873 _0854_
*874 _0855_
*875 _0856_
*876 _0857_
*877 _0858_
*878 _0859_
*879 _0860_
*880 _0861_
*881 _0862_
*882 _0863_
*883 _0864_
*884 _0865_
*885 _0866_
*886 _0867_
*887 _0868_
*888 _0869_
*889 _0870_
*890 _0871_
*891 _0872_
*892 _0873_
*893 _0874_
*894 _0875_
*895 _0876_
*896 _0877_
*897 _0878_
*898 _0879_
*899 _0880_
*900 _0881_
*901 _0882_
*902 _0883_
*903 _0884_
*904 _0885_
*905 _0886_
*906 _0887_
*907 _0888_
*908 _0889_
*909 _0890_
*910 _0891_
*911 _0892_
*912 _0893_
*913 _0894_
*914 _0895_
*915 _0896_
*916 _0897_
*917 _0898_
*918 _0899_
*919 _0900_
*920 _0901_
*921 _0902_
*922 _0903_
*923 _0904_
*924 _0905_
*925 _0906_
*926 _0907_
*927 _0908_
*928 _0909_
*929 _0910_
*930 _0911_
*931 _0912_
*932 _0913_
*933 _0914_
*934 _0915_
*935 _0916_
*936 _0917_
*937 _0918_
*938 _0919_
*939 _0920_
*940 _0921_
*941 _0922_
*942 _0923_
*943 _0924_
*944 _0925_
*945 _0926_
*946 _0927_
*947 _0928_
*948 _0929_
*949 _0930_
*950 _0931_
*951 _0932_
*952 _0933_
*953 _0934_
*954 _0935_
*955 _0936_
*956 _0937_
*957 _0938_
*958 _0939_
*959 _0940_
*960 _0941_
*961 _0942_
*962 _0943_
*963 _0944_
*964 _0945_
*965 _0946_
*966 _0947_
*967 _0948_
*968 _0949_
*969 _0950_
*970 _0951_
*971 _0952_
*972 _0953_
*973 _0954_
*974 _0955_
*975 clknet_0_io_in[0]
*976 clknet_1_0__leaf_io_in[0]
*977 clknet_1_1__leaf_io_in[0]
*978 decoder\.code\[0\]
*979 decoder\.code\[1\]
*980 decoder\.code\[2\]
*981 decoder\.code\[3\]
*982 index\[0\]
*983 index\[1\]
*984 index\[2\]
*985 index\[3\]
*986 index\[4\]
*987 index\[5\]
*988 index\[6\]
*989 index\[7\]
*990 index\[8\]
*991 index\[9\]
*992 net1
*993 ANTENNA_0
*994 ANTENNA_1
*995 ANTENNA_10
*996 ANTENNA_11
*997 ANTENNA_12
*998 ANTENNA_13
*999 ANTENNA_14
*1000 ANTENNA_15
*1001 ANTENNA_16
*1002 ANTENNA_17
*1003 ANTENNA_18
*1004 ANTENNA_19
*1005 ANTENNA_2
*1006 ANTENNA_20
*1007 ANTENNA_3
*1008 ANTENNA_4
*1009 ANTENNA_5
*1010 ANTENNA_6
*1011 ANTENNA_7
*1012 ANTENNA_8
*1013 ANTENNA_9
*1014 FILLER_0_108
*1015 FILLER_0_113
*1016 FILLER_0_117
*1017 FILLER_0_125
*1018 FILLER_0_136
*1019 FILLER_0_145
*1020 FILLER_0_159
*1021 FILLER_0_16
*1022 FILLER_0_167
*1023 FILLER_0_176
*1024 FILLER_0_191
*1025 FILLER_0_195
*1026 FILLER_0_201
*1027 FILLER_0_209
*1028 FILLER_0_216
*1029 FILLER_0_225
*1030 FILLER_0_233
*1031 FILLER_0_24
*1032 FILLER_0_241
*1033 FILLER_0_248
*1034 FILLER_0_257
*1035 FILLER_0_265
*1036 FILLER_0_273
*1037 FILLER_0_279
*1038 FILLER_0_284
*1039 FILLER_0_29
*1040 FILLER_0_291
*1041 FILLER_0_3
*1042 FILLER_0_40
*1043 FILLER_0_52
*1044 FILLER_0_65
*1045 FILLER_0_69
*1046 FILLER_0_8
*1047 FILLER_0_80
*1048 FILLER_0_95
*1049 FILLER_10_10
*1050 FILLER_10_105
*1051 FILLER_10_118
*1052 FILLER_10_132
*1053 FILLER_10_145
*1054 FILLER_10_156
*1055 FILLER_10_164
*1056 FILLER_10_175
*1057 FILLER_10_186
*1058 FILLER_10_194
*1059 FILLER_10_204
*1060 FILLER_10_218
*1061 FILLER_10_232
*1062 FILLER_10_24
*1063 FILLER_10_246
*1064 FILLER_10_258
*1065 FILLER_10_270
*1066 FILLER_10_282
*1067 FILLER_10_294
*1068 FILLER_10_298
*1069 FILLER_10_39
*1070 FILLER_10_45
*1071 FILLER_10_56
*1072 FILLER_10_79
*1073 FILLER_10_83
*1074 FILLER_10_89
*1075 FILLER_10_97
*1076 FILLER_11_103
*1077 FILLER_11_111
*1078 FILLER_11_117
*1079 FILLER_11_127
*1080 FILLER_11_138
*1081 FILLER_11_148
*1082 FILLER_11_159
*1083 FILLER_11_167
*1084 FILLER_11_173
*1085 FILLER_11_184
*1086 FILLER_11_192
*1087 FILLER_11_203
*1088 FILLER_11_209
*1089 FILLER_11_217
*1090 FILLER_11_22
*1091 FILLER_11_223
*1092 FILLER_11_232
*1093 FILLER_11_243
*1094 FILLER_11_251
*1095 FILLER_11_263
*1096 FILLER_11_275
*1097 FILLER_11_279
*1098 FILLER_11_281
*1099 FILLER_11_293
*1100 FILLER_11_3
*1101 FILLER_11_36
*1102 FILLER_11_50
*1103 FILLER_11_66
*1104 FILLER_11_78
*1105 FILLER_11_86
*1106 FILLER_11_94
*1107 FILLER_12_106
*1108 FILLER_12_114
*1109 FILLER_12_119
*1110 FILLER_12_125
*1111 FILLER_12_136
*1112 FILLER_12_141
*1113 FILLER_12_148
*1114 FILLER_12_158
*1115 FILLER_12_168
*1116 FILLER_12_175
*1117 FILLER_12_185
*1118 FILLER_12_192
*1119 FILLER_12_207
*1120 FILLER_12_218
*1121 FILLER_12_226
*1122 FILLER_12_23
*1123 FILLER_12_234
*1124 FILLER_12_242
*1125 FILLER_12_250
*1126 FILLER_12_260
*1127 FILLER_12_27
*1128 FILLER_12_272
*1129 FILLER_12_284
*1130 FILLER_12_29
*1131 FILLER_12_296
*1132 FILLER_12_3
*1133 FILLER_12_38
*1134 FILLER_12_52
*1135 FILLER_12_66
*1136 FILLER_12_74
*1137 FILLER_12_80
*1138 FILLER_12_85
*1139 FILLER_12_95
*1140 FILLER_13_108
*1141 FILLER_13_113
*1142 FILLER_13_118
*1143 FILLER_13_13
*1144 FILLER_13_130
*1145 FILLER_13_140
*1146 FILLER_13_147
*1147 FILLER_13_158
*1148 FILLER_13_166
*1149 FILLER_13_169
*1150 FILLER_13_177
*1151 FILLER_13_185
*1152 FILLER_13_192
*1153 FILLER_13_20
*1154 FILLER_13_204
*1155 FILLER_13_219
*1156 FILLER_13_223
*1157 FILLER_13_225
*1158 FILLER_13_236
*1159 FILLER_13_247
*1160 FILLER_13_253
*1161 FILLER_13_258
*1162 FILLER_13_266
*1163 FILLER_13_278
*1164 FILLER_13_281
*1165 FILLER_13_293
*1166 FILLER_13_3
*1167 FILLER_13_33
*1168 FILLER_13_41
*1169 FILLER_13_52
*1170 FILLER_13_64
*1171 FILLER_13_73
*1172 FILLER_13_81
*1173 FILLER_13_87
*1174 FILLER_13_98
*1175 FILLER_14_101
*1176 FILLER_14_107
*1177 FILLER_14_121
*1178 FILLER_14_132
*1179 FILLER_14_145
*1180 FILLER_14_155
*1181 FILLER_14_163
*1182 FILLER_14_167
*1183 FILLER_14_174
*1184 FILLER_14_178
*1185 FILLER_14_185
*1186 FILLER_14_192
*1187 FILLER_14_20
*1188 FILLER_14_206
*1189 FILLER_14_210
*1190 FILLER_14_218
*1191 FILLER_14_226
*1192 FILLER_14_236
*1193 FILLER_14_246
*1194 FILLER_14_253
*1195 FILLER_14_265
*1196 FILLER_14_277
*1197 FILLER_14_289
*1198 FILLER_14_297
*1199 FILLER_14_3
*1200 FILLER_14_39
*1201 FILLER_14_52
*1202 FILLER_14_56
*1203 FILLER_14_62
*1204 FILLER_14_70
*1205 FILLER_14_78
*1206 FILLER_14_85
*1207 FILLER_14_93
*1208 FILLER_15_102
*1209 FILLER_15_110
*1210 FILLER_15_113
*1211 FILLER_15_118
*1212 FILLER_15_132
*1213 FILLER_15_146
*1214 FILLER_15_154
*1215 FILLER_15_16
*1216 FILLER_15_162
*1217 FILLER_15_179
*1218 FILLER_15_183
*1219 FILLER_15_188
*1220 FILLER_15_198
*1221 FILLER_15_204
*1222 FILLER_15_209
*1223 FILLER_15_220
*1224 FILLER_15_230
*1225 FILLER_15_243
*1226 FILLER_15_251
*1227 FILLER_15_262
*1228 FILLER_15_274
*1229 FILLER_15_281
*1230 FILLER_15_293
*1231 FILLER_15_30
*1232 FILLER_15_42
*1233 FILLER_15_50
*1234 FILLER_15_65
*1235 FILLER_15_74
*1236 FILLER_15_8
*1237 FILLER_15_80
*1238 FILLER_15_86
*1239 FILLER_15_93
*1240 FILLER_16_103
*1241 FILLER_16_112
*1242 FILLER_16_118
*1243 FILLER_16_125
*1244 FILLER_16_135
*1245 FILLER_16_139
*1246 FILLER_16_141
*1247 FILLER_16_153
*1248 FILLER_16_165
*1249 FILLER_16_169
*1250 FILLER_16_176
*1251 FILLER_16_186
*1252 FILLER_16_194
*1253 FILLER_16_204
*1254 FILLER_16_216
*1255 FILLER_16_227
*1256 FILLER_16_238
*1257 FILLER_16_24
*1258 FILLER_16_250
*1259 FILLER_16_260
*1260 FILLER_16_272
*1261 FILLER_16_284
*1262 FILLER_16_29
*1263 FILLER_16_296
*1264 FILLER_16_41
*1265 FILLER_16_56
*1266 FILLER_16_70
*1267 FILLER_16_74
*1268 FILLER_16_8
*1269 FILLER_16_80
*1270 FILLER_16_85
*1271 FILLER_16_94
*1272 FILLER_17_100
*1273 FILLER_17_108
*1274 FILLER_17_113
*1275 FILLER_17_121
*1276 FILLER_17_127
*1277 FILLER_17_134
*1278 FILLER_17_142
*1279 FILLER_17_153
*1280 FILLER_17_160
*1281 FILLER_17_172
*1282 FILLER_17_179
*1283 FILLER_17_189
*1284 FILLER_17_200
*1285 FILLER_17_211
*1286 FILLER_17_223
*1287 FILLER_17_232
*1288 FILLER_17_236
*1289 FILLER_17_241
*1290 FILLER_17_249
*1291 FILLER_17_261
*1292 FILLER_17_27
*1293 FILLER_17_273
*1294 FILLER_17_279
*1295 FILLER_17_281
*1296 FILLER_17_293
*1297 FILLER_17_3
*1298 FILLER_17_50
*1299 FILLER_17_57
*1300 FILLER_17_64
*1301 FILLER_17_74
*1302 FILLER_17_86
*1303 FILLER_17_94
*1304 FILLER_18_106
*1305 FILLER_18_119
*1306 FILLER_18_123
*1307 FILLER_18_131
*1308 FILLER_18_141
*1309 FILLER_18_146
*1310 FILLER_18_151
*1311 FILLER_18_158
*1312 FILLER_18_165
*1313 FILLER_18_176
*1314 FILLER_18_188
*1315 FILLER_18_204
*1316 FILLER_18_21
*1317 FILLER_18_215
*1318 FILLER_18_227
*1319 FILLER_18_239
*1320 FILLER_18_251
*1321 FILLER_18_253
*1322 FILLER_18_265
*1323 FILLER_18_27
*1324 FILLER_18_277
*1325 FILLER_18_289
*1326 FILLER_18_29
*1327 FILLER_18_297
*1328 FILLER_18_3
*1329 FILLER_18_40
*1330 FILLER_18_56
*1331 FILLER_18_67
*1332 FILLER_18_71
*1333 FILLER_18_76
*1334 FILLER_18_89
*1335 FILLER_18_97
*1336 FILLER_19_102
*1337 FILLER_19_110
*1338 FILLER_19_117
*1339 FILLER_19_125
*1340 FILLER_19_132
*1341 FILLER_19_141
*1342 FILLER_19_147
*1343 FILLER_19_153
*1344 FILLER_19_164
*1345 FILLER_19_175
*1346 FILLER_19_185
*1347 FILLER_19_197
*1348 FILLER_19_20
*1349 FILLER_19_207
*1350 FILLER_19_218
*1351 FILLER_19_232
*1352 FILLER_19_243
*1353 FILLER_19_254
*1354 FILLER_19_264
*1355 FILLER_19_276
*1356 FILLER_19_28
*1357 FILLER_19_281
*1358 FILLER_19_293
*1359 FILLER_19_3
*1360 FILLER_19_34
*1361 FILLER_19_42
*1362 FILLER_19_51
*1363 FILLER_19_55
*1364 FILLER_19_60
*1365 FILLER_19_69
*1366 FILLER_19_77
*1367 FILLER_19_84
*1368 FILLER_19_94
*1369 FILLER_1_108
*1370 FILLER_1_11
*1371 FILLER_1_113
*1372 FILLER_1_118
*1373 FILLER_1_131
*1374 FILLER_1_145
*1375 FILLER_1_159
*1376 FILLER_1_167
*1377 FILLER_1_169
*1378 FILLER_1_180
*1379 FILLER_1_19
*1380 FILLER_1_191
*1381 FILLER_1_202
*1382 FILLER_1_213
*1383 FILLER_1_220
*1384 FILLER_1_230
*1385 FILLER_1_238
*1386 FILLER_1_246
*1387 FILLER_1_254
*1388 FILLER_1_262
*1389 FILLER_1_270
*1390 FILLER_1_278
*1391 FILLER_1_28
*1392 FILLER_1_284
*1393 FILLER_1_291
*1394 FILLER_1_3
*1395 FILLER_1_40
*1396 FILLER_1_52
*1397 FILLER_1_64
*1398 FILLER_1_78
*1399 FILLER_1_92
*1400 FILLER_20_102
*1401 FILLER_20_108
*1402 FILLER_20_114
*1403 FILLER_20_12
*1404 FILLER_20_125
*1405 FILLER_20_134
*1406 FILLER_20_150
*1407 FILLER_20_160
*1408 FILLER_20_172
*1409 FILLER_20_18
*1410 FILLER_20_186
*1411 FILLER_20_194
*1412 FILLER_20_207
*1413 FILLER_20_219
*1414 FILLER_20_229
*1415 FILLER_20_24
*1416 FILLER_20_240
*1417 FILLER_20_253
*1418 FILLER_20_260
*1419 FILLER_20_269
*1420 FILLER_20_281
*1421 FILLER_20_293
*1422 FILLER_20_3
*1423 FILLER_20_32
*1424 FILLER_20_45
*1425 FILLER_20_53
*1426 FILLER_20_62
*1427 FILLER_20_75
*1428 FILLER_20_83
*1429 FILLER_20_88
*1430 FILLER_21_10
*1431 FILLER_21_100
*1432 FILLER_21_108
*1433 FILLER_21_113
*1434 FILLER_21_117
*1435 FILLER_21_124
*1436 FILLER_21_131
*1437 FILLER_21_138
*1438 FILLER_21_146
*1439 FILLER_21_149
*1440 FILLER_21_157
*1441 FILLER_21_165
*1442 FILLER_21_175
*1443 FILLER_21_183
*1444 FILLER_21_190
*1445 FILLER_21_198
*1446 FILLER_21_206
*1447 FILLER_21_218
*1448 FILLER_21_225
*1449 FILLER_21_237
*1450 FILLER_21_24
*1451 FILLER_21_249
*1452 FILLER_21_261
*1453 FILLER_21_273
*1454 FILLER_21_279
*1455 FILLER_21_281
*1456 FILLER_21_293
*1457 FILLER_21_3
*1458 FILLER_21_32
*1459 FILLER_21_39
*1460 FILLER_21_48
*1461 FILLER_21_61
*1462 FILLER_21_69
*1463 FILLER_21_77
*1464 FILLER_21_81
*1465 FILLER_21_86
*1466 FILLER_21_94
*1467 FILLER_22_101
*1468 FILLER_22_108
*1469 FILLER_22_124
*1470 FILLER_22_133
*1471 FILLER_22_139
*1472 FILLER_22_147
*1473 FILLER_22_159
*1474 FILLER_22_177
*1475 FILLER_22_192
*1476 FILLER_22_197
*1477 FILLER_22_207
*1478 FILLER_22_215
*1479 FILLER_22_221
*1480 FILLER_22_233
*1481 FILLER_22_239
*1482 FILLER_22_24
*1483 FILLER_22_247
*1484 FILLER_22_251
*1485 FILLER_22_253
*1486 FILLER_22_265
*1487 FILLER_22_277
*1488 FILLER_22_289
*1489 FILLER_22_29
*1490 FILLER_22_297
*1491 FILLER_22_3
*1492 FILLER_22_37
*1493 FILLER_22_45
*1494 FILLER_22_54
*1495 FILLER_22_64
*1496 FILLER_22_70
*1497 FILLER_22_78
*1498 FILLER_22_85
*1499 FILLER_22_93
*1500 FILLER_23_103
*1501 FILLER_23_108
*1502 FILLER_23_113
*1503 FILLER_23_117
*1504 FILLER_23_126
*1505 FILLER_23_134
*1506 FILLER_23_14
*1507 FILLER_23_142
*1508 FILLER_23_152
*1509 FILLER_23_156
*1510 FILLER_23_164
*1511 FILLER_23_169
*1512 FILLER_23_179
*1513 FILLER_23_189
*1514 FILLER_23_201
*1515 FILLER_23_211
*1516 FILLER_23_22
*1517 FILLER_23_223
*1518 FILLER_23_234
*1519 FILLER_23_246
*1520 FILLER_23_256
*1521 FILLER_23_268
*1522 FILLER_23_281
*1523 FILLER_23_293
*1524 FILLER_23_30
*1525 FILLER_23_39
*1526 FILLER_23_45
*1527 FILLER_23_51
*1528 FILLER_23_55
*1529 FILLER_23_62
*1530 FILLER_23_68
*1531 FILLER_23_7
*1532 FILLER_23_76
*1533 FILLER_23_84
*1534 FILLER_23_90
*1535 FILLER_23_95
*1536 FILLER_24_104
*1537 FILLER_24_111
*1538 FILLER_24_123
*1539 FILLER_24_135
*1540 FILLER_24_139
*1541 FILLER_24_150
*1542 FILLER_24_16
*1543 FILLER_24_160
*1544 FILLER_24_172
*1545 FILLER_24_184
*1546 FILLER_24_192
*1547 FILLER_24_197
*1548 FILLER_24_205
*1549 FILLER_24_213
*1550 FILLER_24_221
*1551 FILLER_24_226
*1552 FILLER_24_233
*1553 FILLER_24_24
*1554 FILLER_24_245
*1555 FILLER_24_251
*1556 FILLER_24_253
*1557 FILLER_24_265
*1558 FILLER_24_277
*1559 FILLER_24_289
*1560 FILLER_24_29
*1561 FILLER_24_297
*1562 FILLER_24_3
*1563 FILLER_24_37
*1564 FILLER_24_43
*1565 FILLER_24_48
*1566 FILLER_24_56
*1567 FILLER_24_61
*1568 FILLER_24_65
*1569 FILLER_24_70
*1570 FILLER_24_74
*1571 FILLER_24_79
*1572 FILLER_24_8
*1573 FILLER_24_83
*1574 FILLER_24_85
*1575 FILLER_24_89
*1576 FILLER_24_93
*1577 FILLER_25_10
*1578 FILLER_25_102
*1579 FILLER_25_110
*1580 FILLER_25_113
*1581 FILLER_25_125
*1582 FILLER_25_137
*1583 FILLER_25_145
*1584 FILLER_25_152
*1585 FILLER_25_164
*1586 FILLER_25_169
*1587 FILLER_25_176
*1588 FILLER_25_18
*1589 FILLER_25_184
*1590 FILLER_25_196
*1591 FILLER_25_208
*1592 FILLER_25_220
*1593 FILLER_25_225
*1594 FILLER_25_237
*1595 FILLER_25_243
*1596 FILLER_25_250
*1597 FILLER_25_26
*1598 FILLER_25_261
*1599 FILLER_25_265
*1600 FILLER_25_271
*1601 FILLER_25_279
*1602 FILLER_25_281
*1603 FILLER_25_293
*1604 FILLER_25_3
*1605 FILLER_25_34
*1606 FILLER_25_42
*1607 FILLER_25_52
*1608 FILLER_25_57
*1609 FILLER_25_68
*1610 FILLER_25_80
*1611 FILLER_25_84
*1612 FILLER_25_91
*1613 FILLER_25_97
*1614 FILLER_26_116
*1615 FILLER_26_124
*1616 FILLER_26_13
*1617 FILLER_26_132
*1618 FILLER_26_141
*1619 FILLER_26_153
*1620 FILLER_26_157
*1621 FILLER_26_165
*1622 FILLER_26_175
*1623 FILLER_26_192
*1624 FILLER_26_197
*1625 FILLER_26_214
*1626 FILLER_26_226
*1627 FILLER_26_236
*1628 FILLER_26_24
*1629 FILLER_26_248
*1630 FILLER_26_253
*1631 FILLER_26_261
*1632 FILLER_26_273
*1633 FILLER_26_285
*1634 FILLER_26_29
*1635 FILLER_26_297
*1636 FILLER_26_3
*1637 FILLER_26_33
*1638 FILLER_26_38
*1639 FILLER_26_42
*1640 FILLER_26_48
*1641 FILLER_26_55
*1642 FILLER_26_65
*1643 FILLER_26_79
*1644 FILLER_26_83
*1645 FILLER_26_90
*1646 FILLER_26_94
*1647 FILLER_26_98
*1648 FILLER_27_101
*1649 FILLER_27_108
*1650 FILLER_27_113
*1651 FILLER_27_131
*1652 FILLER_27_144
*1653 FILLER_27_153
*1654 FILLER_27_165
*1655 FILLER_27_169
*1656 FILLER_27_181
*1657 FILLER_27_187
*1658 FILLER_27_195
*1659 FILLER_27_206
*1660 FILLER_27_212
*1661 FILLER_27_220
*1662 FILLER_27_232
*1663 FILLER_27_240
*1664 FILLER_27_249
*1665 FILLER_27_261
*1666 FILLER_27_27
*1667 FILLER_27_273
*1668 FILLER_27_279
*1669 FILLER_27_281
*1670 FILLER_27_293
*1671 FILLER_27_3
*1672 FILLER_27_35
*1673 FILLER_27_46
*1674 FILLER_27_54
*1675 FILLER_27_57
*1676 FILLER_27_62
*1677 FILLER_27_70
*1678 FILLER_27_78
*1679 FILLER_27_85
*1680 FILLER_27_97
*1681 FILLER_28_100
*1682 FILLER_28_106
*1683 FILLER_28_118
*1684 FILLER_28_131
*1685 FILLER_28_139
*1686 FILLER_28_141
*1687 FILLER_28_153
*1688 FILLER_28_16
*1689 FILLER_28_161
*1690 FILLER_28_178
*1691 FILLER_28_190
*1692 FILLER_28_197
*1693 FILLER_28_203
*1694 FILLER_28_213
*1695 FILLER_28_225
*1696 FILLER_28_234
*1697 FILLER_28_24
*1698 FILLER_28_245
*1699 FILLER_28_251
*1700 FILLER_28_259
*1701 FILLER_28_271
*1702 FILLER_28_283
*1703 FILLER_28_29
*1704 FILLER_28_295
*1705 FILLER_28_3
*1706 FILLER_28_41
*1707 FILLER_28_48
*1708 FILLER_28_52
*1709 FILLER_28_60
*1710 FILLER_28_71
*1711 FILLER_28_78
*1712 FILLER_28_8
*1713 FILLER_28_85
*1714 FILLER_28_92
*1715 FILLER_29_108
*1716 FILLER_29_113
*1717 FILLER_29_121
*1718 FILLER_29_133
*1719 FILLER_29_141
*1720 FILLER_29_15
*1721 FILLER_29_153
*1722 FILLER_29_162
*1723 FILLER_29_169
*1724 FILLER_29_181
*1725 FILLER_29_193
*1726 FILLER_29_205
*1727 FILLER_29_214
*1728 FILLER_29_222
*1729 FILLER_29_225
*1730 FILLER_29_237
*1731 FILLER_29_24
*1732 FILLER_29_249
*1733 FILLER_29_257
*1734 FILLER_29_268
*1735 FILLER_29_281
*1736 FILLER_29_293
*1737 FILLER_29_33
*1738 FILLER_29_40
*1739 FILLER_29_47
*1740 FILLER_29_55
*1741 FILLER_29_62
*1742 FILLER_29_7
*1743 FILLER_29_70
*1744 FILLER_29_82
*1745 FILLER_29_87
*1746 FILLER_29_95
*1747 FILLER_29_99
*1748 FILLER_2_104
*1749 FILLER_2_118
*1750 FILLER_2_125
*1751 FILLER_2_136
*1752 FILLER_2_141
*1753 FILLER_2_149
*1754 FILLER_2_163
*1755 FILLER_2_171
*1756 FILLER_2_180
*1757 FILLER_2_191
*1758 FILLER_2_195
*1759 FILLER_2_197
*1760 FILLER_2_213
*1761 FILLER_2_221
*1762 FILLER_2_229
*1763 FILLER_2_237
*1764 FILLER_2_24
*1765 FILLER_2_245
*1766 FILLER_2_251
*1767 FILLER_2_257
*1768 FILLER_2_264
*1769 FILLER_2_268
*1770 FILLER_2_272
*1771 FILLER_2_279
*1772 FILLER_2_286
*1773 FILLER_2_29
*1774 FILLER_2_293
*1775 FILLER_2_3
*1776 FILLER_2_34
*1777 FILLER_2_48
*1778 FILLER_2_64
*1779 FILLER_2_7
*1780 FILLER_2_79
*1781 FILLER_2_83
*1782 FILLER_30_10
*1783 FILLER_30_103
*1784 FILLER_30_107
*1785 FILLER_30_111
*1786 FILLER_30_123
*1787 FILLER_30_135
*1788 FILLER_30_139
*1789 FILLER_30_150
*1790 FILLER_30_158
*1791 FILLER_30_170
*1792 FILLER_30_179
*1793 FILLER_30_192
*1794 FILLER_30_197
*1795 FILLER_30_209
*1796 FILLER_30_226
*1797 FILLER_30_237
*1798 FILLER_30_24
*1799 FILLER_30_249
*1800 FILLER_30_253
*1801 FILLER_30_265
*1802 FILLER_30_277
*1803 FILLER_30_289
*1804 FILLER_30_29
*1805 FILLER_30_297
*1806 FILLER_30_3
*1807 FILLER_30_37
*1808 FILLER_30_46
*1809 FILLER_30_53
*1810 FILLER_30_57
*1811 FILLER_30_61
*1812 FILLER_30_65
*1813 FILLER_30_73
*1814 FILLER_30_80
*1815 FILLER_30_92
*1816 FILLER_31_109
*1817 FILLER_31_113
*1818 FILLER_31_122
*1819 FILLER_31_134
*1820 FILLER_31_146
*1821 FILLER_31_154
*1822 FILLER_31_164
*1823 FILLER_31_17
*1824 FILLER_31_174
*1825 FILLER_31_185
*1826 FILLER_31_195
*1827 FILLER_31_207
*1828 FILLER_31_219
*1829 FILLER_31_223
*1830 FILLER_31_225
*1831 FILLER_31_237
*1832 FILLER_31_248
*1833 FILLER_31_258
*1834 FILLER_31_270
*1835 FILLER_31_278
*1836 FILLER_31_281
*1837 FILLER_31_29
*1838 FILLER_31_293
*1839 FILLER_31_3
*1840 FILLER_31_40
*1841 FILLER_31_52
*1842 FILLER_31_63
*1843 FILLER_31_81
*1844 FILLER_31_9
*1845 FILLER_31_93
*1846 FILLER_31_97
*1847 FILLER_32_100
*1848 FILLER_32_110
*1849 FILLER_32_117
*1850 FILLER_32_126
*1851 FILLER_32_136
*1852 FILLER_32_150
*1853 FILLER_32_161
*1854 FILLER_32_17
*1855 FILLER_32_173
*1856 FILLER_32_185
*1857 FILLER_32_193
*1858 FILLER_32_197
*1859 FILLER_32_205
*1860 FILLER_32_213
*1861 FILLER_32_225
*1862 FILLER_32_229
*1863 FILLER_32_237
*1864 FILLER_32_24
*1865 FILLER_32_245
*1866 FILLER_32_251
*1867 FILLER_32_258
*1868 FILLER_32_270
*1869 FILLER_32_282
*1870 FILLER_32_29
*1871 FILLER_32_294
*1872 FILLER_32_298
*1873 FILLER_32_37
*1874 FILLER_32_44
*1875 FILLER_32_51
*1876 FILLER_32_63
*1877 FILLER_32_67
*1878 FILLER_32_7
*1879 FILLER_32_80
*1880 FILLER_32_85
*1881 FILLER_32_89
*1882 FILLER_33_103
*1883 FILLER_33_111
*1884 FILLER_33_123
*1885 FILLER_33_133
*1886 FILLER_33_141
*1887 FILLER_33_149
*1888 FILLER_33_159
*1889 FILLER_33_167
*1890 FILLER_33_175
*1891 FILLER_33_179
*1892 FILLER_33_186
*1893 FILLER_33_201
*1894 FILLER_33_21
*1895 FILLER_33_213
*1896 FILLER_33_219
*1897 FILLER_33_223
*1898 FILLER_33_225
*1899 FILLER_33_235
*1900 FILLER_33_243
*1901 FILLER_33_249
*1902 FILLER_33_264
*1903 FILLER_33_27
*1904 FILLER_33_276
*1905 FILLER_33_281