*SPEF "ieee 1481-1999"
*DESIGN "jglim_7seg"
*DATE "11:11:11 Fri 11 11, 1111"
*VENDOR "OpenRCX"
*PROGRAM "Parallel Extraction"
*VERSION "1.0"
*DESIGN_FLOW "NAME_SCOPE LOCAL" "PIN_CAP NONE"
*DIVIDER /
*DELIMITER :
*BUS_DELIMITER []
*T_UNIT 1 NS
*C_UNIT 1 PF
*R_UNIT 1 OHM
*L_UNIT 1 HENRY

*NAME_MAP
*1 io_in[0]
*2 io_in[1]
*3 io_in[2]
*4 io_in[3]
*5 io_in[4]
*6 io_in[5]
*7 io_in[6]
*8 io_in[7]
*9 io_out[0]
*10 io_out[1]
*11 io_out[2]
*12 io_out[3]
*13 io_out[4]
*14 io_out[5]
*15 io_out[6]
*16 io_out[7]
*19 _00_
*20 _01_
*21 _02_
*22 _03_
*23 _04_
*24 _05_
*25 _06_
*26 _07_
*27 _08_
*28 _09_
*29 _10_
*30 _11_
*31 _12_
*32 _13_
*33 _14_
*34 _15_
*35 _16_
*36 _17_
*37 _18_
*38 _19_
*39 _20_
*40 _21_
*41 _22_
*42 _23_
*43 _24_
*44 _25_
*45 _26_
*46 _27_
*47 _28_
*48 _29_
*49 _30_
*50 _31_
*51 clknet_0__01_
*52 clknet_0__02_
*53 clknet_0__08_
*54 clknet_0__10_
*55 clknet_0__11_
*56 clknet_0__12_
*57 clknet_0__14_
*58 clknet_0__15_
*59 clknet_0__24_
*60 clknet_0_io_in[0]
*61 clknet_1_0__leaf__01_
*62 clknet_1_0__leaf__02_
*63 clknet_1_0__leaf__08_
*64 clknet_1_0__leaf__10_
*65 clknet_1_0__leaf__11_
*66 clknet_1_0__leaf__12_
*67 clknet_1_0__leaf__14_
*68 clknet_1_0__leaf__15_
*69 clknet_1_0__leaf__24_
*70 clknet_1_0__leaf_io_in[0]
*71 clknet_1_1__leaf__01_
*72 clknet_1_1__leaf__02_
*73 clknet_1_1__leaf__08_
*74 clknet_1_1__leaf__10_
*75 clknet_1_1__leaf__11_
*76 clknet_1_1__leaf__12_
*77 clknet_1_1__leaf__14_
*78 clknet_1_1__leaf__15_
*79 clknet_1_1__leaf__24_
*80 clknet_1_1__leaf_io_in[0]
*81 net1
*82 net2
*83 net3
*84 net4
*85 net5
*86 FILLER_0_109
*87 FILLER_0_113
*88 FILLER_0_125
*89 FILLER_0_137
*90 FILLER_0_141
*91 FILLER_0_15
*92 FILLER_0_153
*93 FILLER_0_165
*94 FILLER_0_169
*95 FILLER_0_181
*96 FILLER_0_193
*97 FILLER_0_197
*98 FILLER_0_209
*99 FILLER_0_221
*100 FILLER_0_225
*101 FILLER_0_237
*102 FILLER_0_249
*103 FILLER_0_253
*104 FILLER_0_265
*105 FILLER_0_27
*106 FILLER_0_277
*107 FILLER_0_281
*108 FILLER_0_29
*109 FILLER_0_293
*110 FILLER_0_3
*111 FILLER_0_41
*112 FILLER_0_53
*113 FILLER_0_57
*114 FILLER_0_69
*115 FILLER_0_81
*116 FILLER_0_85
*117 FILLER_0_97
*118 FILLER_10_109
*119 FILLER_10_11
*120 FILLER_10_121
*121 FILLER_10_133
*122 FILLER_10_139
*123 FILLER_10_141
*124 FILLER_10_153
*125 FILLER_10_16
*126 FILLER_10_165
*127 FILLER_10_177
*128 FILLER_10_189
*129 FILLER_10_195
*130 FILLER_10_197
*131 FILLER_10_209
*132 FILLER_10_221
*133 FILLER_10_233
*134 FILLER_10_245
*135 FILLER_10_251
*136 FILLER_10_253
*137 FILLER_10_265
*138 FILLER_10_277
*139 FILLER_10_289
*140 FILLER_10_29
*141 FILLER_10_297
*142 FILLER_10_3
*143 FILLER_10_41
*144 FILLER_10_53
*145 FILLER_10_65
*146 FILLER_10_77
*147 FILLER_10_83
*148 FILLER_10_85
*149 FILLER_10_97
*150 FILLER_11_105
*151 FILLER_11_111
*152 FILLER_11_113
*153 FILLER_11_125
*154 FILLER_11_137
*155 FILLER_11_149
*156 FILLER_11_15
*157 FILLER_11_161
*158 FILLER_11_167
*159 FILLER_11_169
*160 FILLER_11_181
*161 FILLER_11_193
*162 FILLER_11_205
*163 FILLER_11_217
*164 FILLER_11_223
*165 FILLER_11_225
*166 FILLER_11_237
*167 FILLER_11_249
*168 FILLER_11_261
*169 FILLER_11_27
*170 FILLER_11_273
*171 FILLER_11_279
*172 FILLER_11_281
*173 FILLER_11_293
*174 FILLER_11_3
*175 FILLER_11_39
*176 FILLER_11_51
*177 FILLER_11_55
*178 FILLER_11_57
*179 FILLER_11_69
*180 FILLER_11_81
*181 FILLER_11_93
*182 FILLER_12_109
*183 FILLER_12_11
*184 FILLER_12_121
*185 FILLER_12_133
*186 FILLER_12_139
*187 FILLER_12_141
*188 FILLER_12_153
*189 FILLER_12_165
*190 FILLER_12_177
*191 FILLER_12_189
*192 FILLER_12_195
*193 FILLER_12_197
*194 FILLER_12_209
*195 FILLER_12_221
*196 FILLER_12_23
*197 FILLER_12_233
*198 FILLER_12_245
*199 FILLER_12_251
*200 FILLER_12_253
*201 FILLER_12_265
*202 FILLER_12_27
*203 FILLER_12_277
*204 FILLER_12_289
*205 FILLER_12_29
*206 FILLER_12_297
*207 FILLER_12_3
*208 FILLER_12_41
*209 FILLER_12_53
*210 FILLER_12_65
*211 FILLER_12_77
*212 FILLER_12_83
*213 FILLER_12_85
*214 FILLER_12_97
*215 FILLER_13_105
*216 FILLER_13_111
*217 FILLER_13_113
*218 FILLER_13_125
*219 FILLER_13_137
*220 FILLER_13_149
*221 FILLER_13_15
*222 FILLER_13_161
*223 FILLER_13_167
*224 FILLER_13_169
*225 FILLER_13_181
*226 FILLER_13_193
*227 FILLER_13_205
*228 FILLER_13_217
*229 FILLER_13_223
*230 FILLER_13_225
*231 FILLER_13_237
*232 FILLER_13_249
*233 FILLER_13_261
*234 FILLER_13_27
*235 FILLER_13_273
*236 FILLER_13_279
*237 FILLER_13_281
*238 FILLER_13_293
*239 FILLER_13_3
*240 FILLER_13_39
*241 FILLER_13_51
*242 FILLER_13_55
*243 FILLER_13_57
*244 FILLER_13_69
*245 FILLER_13_81
*246 FILLER_13_93
*247 FILLER_14_109
*248 FILLER_14_121
*249 FILLER_14_133
*250 FILLER_14_139
*251 FILLER_14_141
*252 FILLER_14_15
*253 FILLER_14_153
*254 FILLER_14_165
*255 FILLER_14_177
*256 FILLER_14_189
*257 FILLER_14_195
*258 FILLER_14_197
*259 FILLER_14_209
*260 FILLER_14_221
*261 FILLER_14_233
*262 FILLER_14_245
*263 FILLER_14_251
*264 FILLER_14_253
*265 FILLER_14_265
*266 FILLER_14_27
*267 FILLER_14_277
*268 FILLER_14_289
*269 FILLER_14_29
*270 FILLER_14_297
*271 FILLER_14_3
*272 FILLER_14_41
*273 FILLER_14_53
*274 FILLER_14_65
*275 FILLER_14_77
*276 FILLER_14_83
*277 FILLER_14_85
*278 FILLER_14_97
*279 FILLER_15_105
*280 FILLER_15_111
*281 FILLER_15_113
*282 FILLER_15_125
*283 FILLER_15_137
*284 FILLER_15_149
*285 FILLER_15_15
*286 FILLER_15_161
*287 FILLER_15_167
*288 FILLER_15_169
*289 FILLER_15_181
*290 FILLER_15_193
*291 FILLER_15_205
*292 FILLER_15_217
*293 FILLER_15_223
*294 FILLER_15_225
*295 FILLER_15_237
*296 FILLER_15_24
*297 FILLER_15_249
*298 FILLER_15_261
*299 FILLER_15_273
*300 FILLER_15_279
*301 FILLER_15_281
*302 FILLER_15_293
*303 FILLER_15_3
*304 FILLER_15_36
*305 FILLER_15_48
*306 FILLER_15_57
*307 FILLER_15_69
*308 FILLER_15_81
*309 FILLER_15_93
*310 FILLER_16_109
*311 FILLER_16_11
*312 FILLER_16_121
*313 FILLER_16_133
*314 FILLER_16_139
*315 FILLER_16_141
*316 FILLER_16_153
*317 FILLER_16_165
*318 FILLER_16_177
*319 FILLER_16_189
*320 FILLER_16_195
*321 FILLER_16_197
*322 FILLER_16_209
*323 FILLER_16_221
*324 FILLER_16_23
*325 FILLER_16_233
*326 FILLER_16_245
*327 FILLER_16_251
*328 FILLER_16_253
*329 FILLER_16_265
*330 FILLER_16_27
*331 FILLER_16_277
*332 FILLER_16_289
*333 FILLER_16_29
*334 FILLER_16_297
*335 FILLER_16_3
*336 FILLER_16_41
*337 FILLER_16_53
*338 FILLER_16_65
*339 FILLER_16_77
*340 FILLER_16_83
*341 FILLER_16_85
*342 FILLER_16_97
*343 FILLER_17_105
*344 FILLER_17_111
*345 FILLER_17_113
*346 FILLER_17_125
*347 FILLER_17_137
*348 FILLER_17_149
*349 FILLER_17_15
*350 FILLER_17_161
*351 FILLER_17_167
*352 FILLER_17_169
*353 FILLER_17_181
*354 FILLER_17_193
*355 FILLER_17_205
*356 FILLER_17_217
*357 FILLER_17_223
*358 FILLER_17_225
*359 FILLER_17_237
*360 FILLER_17_249
*361 FILLER_17_261
*362 FILLER_17_27
*363 FILLER_17_273
*364 FILLER_17_279
*365 FILLER_17_281
*366 FILLER_17_293
*367 FILLER_17_3
*368 FILLER_17_39
*369 FILLER_17_51
*370 FILLER_17_55
*371 FILLER_17_57
*372 FILLER_17_69
*373 FILLER_17_81
*374 FILLER_17_93
*375 FILLER_18_109
*376 FILLER_18_121
*377 FILLER_18_133
*378 FILLER_18_139
*379 FILLER_18_141
*380 FILLER_18_15
*381 FILLER_18_153
*382 FILLER_18_165
*383 FILLER_18_177
*384 FILLER_18_189
*385 FILLER_18_195
*386 FILLER_18_197
*387 FILLER_18_209
*388 FILLER_18_221
*389 FILLER_18_233
*390 FILLER_18_245
*391 FILLER_18_251
*392 FILLER_18_253
*393 FILLER_18_265
*394 FILLER_18_27
*395 FILLER_18_277
*396 FILLER_18_289
*397 FILLER_18_29
*398 FILLER_18_297
*399 FILLER_18_3
*400 FILLER_18_41
*401 FILLER_18_53
*402 FILLER_18_65
*403 FILLER_18_77
*404 FILLER_18_83
*405 FILLER_18_85
*406 FILLER_18_97
*407 FILLER_19_105
*408 FILLER_19_111
*409 FILLER_19_113
*410 FILLER_19_125
*411 FILLER_19_137
*412 FILLER_19_149
*413 FILLER_19_15
*414 FILLER_19_161
*415 FILLER_19_167
*416 FILLER_19_169
*417 FILLER_19_181
*418 FILLER_19_193
*419 FILLER_19_205
*420 FILLER_19_217
*421 FILLER_19_223
*422 FILLER_19_225
*423 FILLER_19_237
*424 FILLER_19_249
*425 FILLER_19_261
*426 FILLER_19_27
*427 FILLER_19_273
*428 FILLER_19_279
*429 FILLER_19_281
*430 FILLER_19_293
*431 FILLER_19_3
*432 FILLER_19_39
*433 FILLER_19_51
*434 FILLER_19_55
*435 FILLER_19_57
*436 FILLER_19_69
*437 FILLER_19_81
*438 FILLER_19_93
*439 FILLER_1_105
*440 FILLER_1_111
*441 FILLER_1_113
*442 FILLER_1_125
*443 FILLER_1_137
*444 FILLER_1_149
*445 FILLER_1_15
*446 FILLER_1_161
*447 FILLER_1_167
*448 FILLER_1_169
*449 FILLER_1_181
*450 FILLER_1_193
*451 FILLER_1_205
*452 FILLER_1_217
*453 FILLER_1_223
*454 FILLER_1_225
*455 FILLER_1_237
*456 FILLER_1_249
*457 FILLER_1_261
*458 FILLER_1_27
*459 FILLER_1_273
*460 FILLER_1_279
*461 FILLER_1_281
*462 FILLER_1_293
*463 FILLER_1_3
*464 FILLER_1_39
*465 FILLER_1_51
*466 FILLER_1_55
*467 FILLER_1_57
*468 FILLER_1_69
*469 FILLER_1_81
*470 FILLER_1_93
*471 FILLER_20_109
*472 FILLER_20_121
*473 FILLER_20_133
*474 FILLER_20_139
*475 FILLER_20_141
*476 FILLER_20_153
*477 FILLER_20_165
*478 FILLER_20_177
*479 FILLER_20_189
*480 FILLER_20_195
*481 FILLER_20_197
*482 FILLER_20_209
*483 FILLER_20_21
*484 FILLER_20_221
*485 FILLER_20_233
*486 FILLER_20_245
*487 FILLER_20_251
*488 FILLER_20_253
*489 FILLER_20_265
*490 FILLER_20_27
*491 FILLER_20_277
*492 FILLER_20_289
*493 FILLER_20_29
*494 FILLER_20_297
*495 FILLER_20_41
*496 FILLER_20_53
*497 FILLER_20_65
*498 FILLER_20_77
*499 FILLER_20_83
*500 FILLER_20_85
*501 FILLER_20_9
*502 FILLER_20_97
*503 FILLER_21_105
*504 FILLER_21_111
*505 FILLER_21_113
*506 FILLER_21_125
*507 FILLER_21_137
*508 FILLER_21_149
*509 FILLER_21_15
*510 FILLER_21_161
*511 FILLER_21_167
*512 FILLER_21_169
*513 FILLER_21_181
*514 FILLER_21_193
*515 FILLER_21_205
*516 FILLER_21_21
*517 FILLER_21_217
*518 FILLER_21_223
*519 FILLER_21_225
*520 FILLER_21_237
*521 FILLER_21_249
*522 FILLER_21_261
*523 FILLER_21_273
*524 FILLER_21_279
*525 FILLER_21_281
*526 FILLER_21_29
*527 FILLER_21_293
*528 FILLER_21_3
*529 FILLER_21_41
*530 FILLER_21_53
*531 FILLER_21_57
*532 FILLER_21_69
*533 FILLER_21_81
*534 FILLER_21_93
*535 FILLER_22_109
*536 FILLER_22_121
*537 FILLER_22_133
*538 FILLER_22_139
*539 FILLER_22_141
*540 FILLER_22_15
*541 FILLER_22_153
*542 FILLER_22_165
*543 FILLER_22_177
*544 FILLER_22_189
*545 FILLER_22_195
*546 FILLER_22_197
*547 FILLER_22_209
*548 FILLER_22_221
*549 FILLER_22_233
*550 FILLER_22_245
*551 FILLER_22_251
*552 FILLER_22_253
*553 FILLER_22_265
*554 FILLER_22_27
*555 FILLER_22_277
*556 FILLER_22_289
*557 FILLER_22_29
*558 FILLER_22_297
*559 FILLER_22_3
*560 FILLER_22_41
*561 FILLER_22_53
*562 FILLER_22_65
*563 FILLER_22_77
*564 FILLER_22_83
*565 FILLER_22_85
*566 FILLER_22_97
*567 FILLER_23_105
*568 FILLER_23_11
*569 FILLER_23_111
*570 FILLER_23_113
*571 FILLER_23_125
*572 FILLER_23_137
*573 FILLER_23_149
*574 FILLER_23_161
*575 FILLER_23_167
*576 FILLER_23_169
*577 FILLER_23_181
*578 FILLER_23_193
*579 FILLER_23_20
*580 FILLER_23_205
*581 FILLER_23_217
*582 FILLER_23_223
*583 FILLER_23_225
*584 FILLER_23_237
*585 FILLER_23_249
*586 FILLER_23_261
*587 FILLER_23_273
*588 FILLER_23_279
*589 FILLER_23_281
*590 FILLER_23_293
*591 FILLER_23_3
*592 FILLER_23_32
*593 FILLER_23_44
*594 FILLER_23_57
*595 FILLER_23_69
*596 FILLER_23_81
*597 FILLER_23_93
*598 FILLER_24_109
*599 FILLER_24_121
*600 FILLER_24_133
*601 FILLER_24_139
*602 FILLER_24_141
*603 FILLER_24_15
*604 FILLER_24_153
*605 FILLER_24_165
*606 FILLER_24_177
*607 FILLER_24_189
*608 FILLER_24_195
*609 FILLER_24_197
*610 FILLER_24_209
*611 FILLER_24_221
*612 FILLER_24_233
*613 FILLER_24_245
*614 FILLER_24_251
*615 FILLER_24_253
*616 FILLER_24_265
*617 FILLER_24_27
*618 FILLER_24_277
*619 FILLER_24_289
*620 FILLER_24_29
*621 FILLER_24_297
*622 FILLER_24_3
*623 FILLER_24_41
*624 FILLER_24_53
*625 FILLER_24_65
*626 FILLER_24_77
*627 FILLER_24_83
*628 FILLER_24_85
*629 FILLER_24_97
*630 FILLER_25_105
*631 FILLER_25_111
*632 FILLER_25_113
*633 FILLER_25_125
*634 FILLER_25_137
*635 FILLER_25_149
*636 FILLER_25_161
*637 FILLER_25_167
*638 FILLER_25_169
*639 FILLER_25_18
*640 FILLER_25_181
*641 FILLER_25_193
*642 FILLER_25_205
*643 FILLER_25_217
*644 FILLER_25_223
*645 FILLER_25_225
*646 FILLER_25_237
*647 FILLER_25_249
*648 FILLER_25_261
*649 FILLER_25_273
*650 FILLER_25_279
*651 FILLER_25_281
*652 FILLER_25_293
*653 FILLER_25_30
*654 FILLER_25_42
*655 FILLER_25_54
*656 FILLER_25_57
*657 FILLER_25_69
*658 FILLER_25_81
*659 FILLER_25_9
*660 FILLER_25_93
*661 FILLER_26_109
*662 FILLER_26_121
*663 FILLER_26_133
*664 FILLER_26_139
*665 FILLER_26_141
*666 FILLER_26_15
*667 FILLER_26_153
*668 FILLER_26_165
*669 FILLER_26_177
*670 FILLER_26_189
*671 FILLER_26_195
*672 FILLER_26_197
*673 FILLER_26_209
*674 FILLER_26_221
*675 FILLER_26_233
*676 FILLER_26_245
*677 FILLER_26_251
*678 FILLER_26_253
*679 FILLER_26_265
*680 FILLER_26_27
*681 FILLER_26_277
*682 FILLER_26_289
*683 FILLER_26_29
*684 FILLER_26_297
*685 FILLER_26_3
*686 FILLER_26_41
*687 FILLER_26_53
*688 FILLER_26_65
*689 FILLER_26_77
*690 FILLER_26_83
*691 FILLER_26_85
*692 FILLER_26_97
*693 FILLER_27_105
*694 FILLER_27_111
*695 FILLER_27_113
*696 FILLER_27_125
*697 FILLER_27_137
*698 FILLER_27_149
*699 FILLER_27_15
*700 FILLER_27_161
*701 FILLER_27_167
*702 FILLER_27_169
*703 FILLER_27_181
*704 FILLER_27_193
*705 FILLER_27_205
*706 FILLER_27_217
*707 FILLER_27_223
*708 FILLER_27_225
*709 FILLER_27_237
*710 FILLER_27_249
*711 FILLER_27_261
*712 FILLER_27_27
*713 FILLER_27_273
*714 FILLER_27_279
*715 FILLER_27_281
*716 FILLER_27_293
*717 FILLER_27_3
*718 FILLER_27_39
*719 FILLER_27_51
*720 FILLER_27_55
*721 FILLER_27_57
*722 FILLER_27_69
*723 FILLER_27_81
*724 FILLER_27_93
*725 FILLER_28_109
*726 FILLER_28_121
*727 FILLER_28_133
*728 FILLER_28_139
*729 FILLER_28_141
*730 FILLER_28_15
*731 FILLER_28_153
*732 FILLER_28_165
*733 FILLER_28_177
*734 FILLER_28_189
*735 FILLER_28_195
*736 FILLER_28_197
*737 FILLER_28_209
*738 FILLER_28_221
*739 FILLER_28_233
*740 FILLER_28_245
*741 FILLER_28_251
*742 FILLER_28_253
*743 FILLER_28_265
*744 FILLER_28_27
*745 FILLER_28_277
*746 FILLER_28_289
*747 FILLER_28_29
*748 FILLER_28_297
*749 FILLER_28_3
*750 FILLER_28_41
*751 FILLER_28_53
*752 FILLER_28_65
*753 FILLER_28_77
*754 FILLER_28_83
*755 FILLER_28_85
*756 FILLER_28_97
*757 FILLER_29_105
*758 FILLER_29_111
*759 FILLER_29_113
*760 FILLER_29_125
*761 FILLER_29_137
*762 FILLER_29_149
*763 FILLER_29_161
*764 FILLER_29_167
*765 FILLER_29_169
*766 FILLER_29_181
*767 FILLER_29_19
*768 FILLER_29_193
*769 FILLER_29_205
*770 FILLER_29_217
*771 FILLER_29_223
*772 FILLER_29_225
*773 FILLER_29_237
*774 FILLER_29_249
*775 FILLER_29_261
*776 FILLER_29_273
*777 FILLER_29_279
*778 FILLER_29_281
*779 FILLER_29_293
*780 FILLER_29_3
*781 FILLER_29_31
*782 FILLER_29_43
*783 FILLER_29_55
*784 FILLER_29_57
*785 FILLER_29_69
*786 FILLER_29_81
*787 FILLER_29_93
*788 FILLER_2_109
*789 FILLER_2_121
*790 FILLER_2_133
*791 FILLER_2_139
*792 FILLER_2_141
*793 FILLER_2_15
*794 FILLER_2_153
*795 FILLER_2_165
*796 FILLER_2_177
*797 FILLER_2_189
*798 FILLER_2_195
*799 FILLER_2_197
*800 FILLER_2_209
*801 FILLER_2_221
*802 FILLER_2_233
*803 FILLER_2_245
*804 FILLER_2_251
*805 FILLER_2_253
*806 FILLER_2_265
*807 FILLER_2_27
*808 FILLER_2_277
*809 FILLER_2_289
*810 FILLER_2_29
*811 FILLER_2_297
*812 FILLER_2_3
*813 FILLER_2_41
*814 FILLER_2_53
*815 FILLER_2_65
*816 FILLER_2_77
*817 FILLER_2_83
*818 FILLER_2_85
*819 FILLER_2_97
*820 FILLER_30_109
*821 FILLER_30_121
*822 FILLER_30_133
*823 FILLER_30_139
*824 FILLER_30_141
*825 FILLER_30_153
*826 FILLER_30_165
*827 FILLER_30_177
*828 FILLER_30_189
*829 FILLER_30_195
*830 FILLER_30_197
*831 FILLER_30_209
*832 FILLER_30_221
*833 FILLER_30_233
*834 FILLER_30_24
*835 FILLER_30_245
*836 FILLER_30_251
*837 FILLER_30_253
*838 FILLER_30_265
*839 FILLER_30_277
*840 FILLER_30_289
*841 FILLER_30_29
*842 FILLER_30_297
*843 FILLER_30_3
*844 FILLER_30_41
*845 FILLER_30_53
*846 FILLER_30_65
*847 FILLER_30_77
*848 FILLER_30_83
*849 FILLER_30_85
*850 FILLER_30_97
*851 FILLER_31_10
*852 FILLER_31_105
*853 FILLER_31_111
*854 FILLER_31_113
*855 FILLER_31_125
*856 FILLER_31_137
*857 FILLER_31_149
*858 FILLER_31_161
*859 FILLER_31_167
*860 FILLER_31_169
*861 FILLER_31_181
*862 FILLER_31_193
*863 FILLER_31_205
*864 FILLER_31_217
*865 FILLER_31_223
*866 FILLER_31_225
*867 FILLER_31_237
*868 FILLER_31_249
*869 FILLER_31_261
*870 FILLER_31_273
*871 FILLER_31_279
*872 FILLER_31_281
*873 FILLER_31_293
*874 FILLER_31_3
*875 FILLER_31_36
*876 FILLER_31_48
*877 FILLER_31_57
*878 FILLER_31_69
*879 FILLER_31_81
*880 FILLER_31_93
*881 FILLER_32_109
*882 FILLER_32_121
*883 FILLER_32_133
*884 FILLER_32_139
*885 FILLER_32_141
*886 FILLER_32_153
*887 FILLER_32_165
*888 FILLER_32_177
*889 FILLER_32_189
*890 FILLER_32_195
*891 FILLER_32_197
*892 FILLER_32_209
*893 FILLER_32_221
*894 FILLER_32_233
*895 FILLER_32_24
*896 FILLER_32_245
*897 FILLER_32_251
*898 FILLER_32_253
*899 FILLER_32_265
*900 FILLER_32_277
*901 FILLER_32_289
*902 FILLER_32_297
*903 FILLER_32_3
*904 FILLER_32_51
*905 FILLER_32_63
*906 FILLER_32_75
*907 FILLER_32_83
*908 FILLER_32_85
*909 FILLER_32_97
*910 FILLER_33_108
*911 FILLER_33_113
*912 FILLER_33_125
*913 FILLER_33_137
*914 FILLER_33_149
*915 FILLER_33_15
*916 FILLER_33_161
*917 FILLER_33_167
*918 FILLER_33_169
*919 FILLER_33_181
*920 FILLER_33_193
*921 FILLER_33_205
*922 FILLER_33_217
*923 FILLER_33_223
*924 FILLER_33_225
*925 FILLER_33_237
*926 FILLER_33_249
*927 FILLER_33_261
*928 FILLER_33_273
*929 FILLER_33_279
*930 FILLER_33_281
*931 FILLER_33_293
*932 FILLER_33_36
*933 FILLER_33_45
*934 FILLER_33_52
*935 FILLER_33_60
*936 FILLER_33_72
*937 FILLER_33_84
*938 FILLER_33_9
*939 FILLER_33_96
*940 FILLER_34_109
*941 FILLER_34_121
*942 FILLER_34_133
*943 FILLER_34_139
*944 FILLER_34_141
*945 FILLER_34_153
*946 FILLER_34_165
*947 FILLER_34_177
*948 FILLER_34_189
*949 FILLER_34_195
*950 FILLER_34_197
*951 FILLER_34_209
*952 FILLER_34_221
*953 FILLER_34_233
*954 FILLER_34_24
*955 FILLER_34_245
*956 FILLER_34_251
*957 FILLER_34_253
*958 FILLER_34_265
*959 FILLER_34_277
*960 FILLER_34_289
*961 FILLER_34_29
*962 FILLER_34_297
*963 FILLER_34_3
*964 FILLER_34_53
*965 FILLER_34_65
*966 FILLER_34_77
*967 FILLER_34_83
*968 FILLER_34_85
*969 FILLER_34_97
*970 FILLER_35_111
*971 FILLER_35_113
*972 FILLER_35_125
*973 FILLER_35_137
*974 FILLER_35_149
*975 FILLER_35_16
*976 FILLER_35_161
*977 FILLER_35_167
*978 FILLER_35_169
*979 FILLER_35_181
*980 FILLER_35_193
*981 FILLER_35_205
*982 FILLER_35_217
*983 FILLER_35_223
*984 FILLER_35_225
*985 FILLER_35_237
*986 FILLER_35_249
*987 FILLER_35_261
*988 FILLER_35_273
*989 FILLER_35_279
*990 FILLER_35_281
*991 FILLER_35_293
*992 FILLER_35_40
*993 FILLER_35_51
*994 FILLER_35_55
*995 FILLER_35_63
*996 FILLER_35_75
*997 FILLER_35_87
*998 FILLER_35_99
*999 FILLER_36_109
*1000 FILLER_36_121
*1001 FILLER_36_133
*1002 FILLER_36_139
*1003 FILLER_36_141
*1004 FILLER_36_153
*1005 FILLER_36_165
*1006 FILLER_36_177
*1007 FILLER_36_189
*1008 FILLER_36_195
*1009 FILLER_36_197
*1010 FILLER_36_209
*1011 FILLER_36_221
*1012 FILLER_36_233
*1013 FILLER_36_24
*1014 FILLER_36_245
*1015 FILLER_36_251
*1016 FILLER_36_253
*1017 FILLER_36_265
*1018 FILLER_36_277
*1019 FILLER_36_289
*1020 FILLER_36_297
*1021 FILLER_36_3
*1022 FILLER_36_39
*1023 FILLER_36_65
*1024 FILLER_36_77
*1025 FILLER_36_83
*1026 FILLER_36_85
*1027 FILLER_36_97
*1028 FILLER_37_109
*1029 FILLER_37_113
*1030 FILLER_37_12
*1031 FILLER_37_125
*1032 FILLER_37_137
*1033 FILLER_37_149
*1034 FILLER_37_161
*1035 FILLER_37_167
*1036 FILLER_37_169
*1037 FILLER_37_181
*1038 FILLER_37_193
*1039 FILLER_37_205
*1040 FILLER_37_217
*1041 FILLER_37_223
*1042 FILLER_37_225
*1043 FILLER_37_237
*1044 FILLER_37_249
*1045 FILLER_37_261
*1046 FILLER_37_273
*1047 FILLER_37_279
*1048 FILLER_37_281
*1049 FILLER_37_293
*1050 FILLER_37_36
*1051 FILLER_37_42
*1052 FILLER_37_50
*1053 FILLER_37_64
*1054 FILLER_37_73
*1055 FILLER_37_85
*1056 FILLER_37_97
*1057 FILLER_38_109
*1058 FILLER_38_121
*1059 FILLER_38_133
*1060 FILLER_38_139
*1061 FILLER_38_141
*1062 FILLER_38_153
*1063 FILLER_38_165
*1064 FILLER_38_177
*1065 FILLER_38_189
*1066 FILLER_38_195
*1067 FILLER_38_197
*1068 FILLER_38_209
*1069 FILLER_38_221
*1070 FILLER_38_233
*1071 FILLER_38_24
*1072 FILLER_38_245
*1073 FILLER_38_251
*1074 FILLER_38_253
*1075 FILLER_38_265
*1076 FILLER_38_277
*1077 FILLER_38_289
*1078 FILLER_38_29
*1079 FILLER_38_297
*1080 FILLER_38_3
*1081 FILLER_38_53
*1082 FILLER_38_64
*1083 FILLER_38_74
*1084 FILLER_38_82
*1085 FILLER_38_85
*1086 FILLER_38_97
*1087 FILLER_39_105
*1088 FILLER_39_111
*1089 FILLER_39_113
*1090 FILLER_39_12
*1091 FILLER_39_125
*1092 FILLER_39_137
*1093 FILLER_39_149
*1094 FILLER_39_161
*1095 FILLER_39_167
*1096 FILLER_39_169
*1097 FILLER_39_181
*1098 FILLER_39_193
*1099 FILLER_39_205
*1100 FILLER_39_217
*1101 FILLER_39_223
*1102 FILLER_39_225
*1103 FILLER_39_237
*1104 FILLER_39_249
*1105 FILLER_39_261
*1106 FILLER_39_273
*1107 FILLER_39_279
*1108 FILLER_39_281
*1109 FILLER_39_293
*1110 FILLER_39_3
*1111 FILLER_39_36
*1112 FILLER_39_50
*1113 FILLER_39_57
*1114 FILLER_39_81
*1115 FILLER_39_93
*1116 FILLER_3_105
*1117 FILLER_3_111
*1118 FILLER_3_113
*1119 FILLER_3_125
*1120 FILLER_3_137
*1121 FILLER_3_149
*1122 FILLER_3_15
*1123 FILLER_3_161
*1124 FILLER_3_167
*1125 FILLER_3_169
*1126 FILLER_3_181
*1127 FILLER_3_193
*1128 FILLER_3_205
*1129 FILLER_3_217
*1130 FILLER_3_223
*1131 FILLER_3_225
*1132 FILLER_3_237
*1133 FILLER_3_249
*1134 FILLER_3_261
*1135 FILLER_3_27
*1136 FILLER_3_273
*1137 FILLER_3_279
*1138 FILLER_3_281
*1139 FILLER_3_293
*1140 FILLER_3_3
*1141 FILLER_3_39
*1142 FILLER_3_51
*1143 FILLER_3_55
*1144 FILLER_3_57
*1145 FILLER_3_69
*1146 FILLER_3_81
*1147 FILLER_3_93
*1148 FILLER_40_109
*1149 FILLER_40_121
*1150 FILLER_40_133
*1151 FILLER_40_139
*1152 FILLER_40_141
*1153 FILLER_40_153
*1154 FILLER_40_165
*1155 FILLER_40_177
*1156 FILLER_40_189
*1157 FILLER_40_195
*1158 FILLER_40_197
*1159 FILLER_40_209
*1160 FILLER_40_221
*1161 FILLER_40_233
*1162 FILLER_40_24
*1163 FILLER_40_245
*1164 FILLER_40_251
*1165 FILLER_40_253
*1166 FILLER_40_265
*1167 FILLER_40_277
*1168 FILLER_40_289
*1169 FILLER_40_29
*1170 FILLER_40_297
*1171 FILLER_40_3
*1172 FILLER_40_53
*1173 FILLER_40_77
*1174 FILLER_40_83
*1175 FILLER_40_85
*1176 FILLER_40_97
*1177 FILLER_41_102
*1178 FILLER_41_110
*1179 FILLER_41_113
*1180 FILLER_41_125
*1181 FILLER_41_137
*1182 FILLER_41_149
*1183 FILLER_41_16
*1184 FILLER_41_161
*1185 FILLER_41_167
*1186 FILLER_41_169
*1187 FILLER_41_181
*1188 FILLER_41_193
*1189 FILLER_41_205
*1190 FILLER_41_217
*1191 FILLER_41_223
*1192 FILLER_41_225
*1193 FILLER_41_237
*1194 FILLER_41_24
*1195 FILLER_41_249
*1196 FILLER_41_261
*1197 FILLER_41_273
*1198 FILLER_41_279
*1199 FILLER_41_281
*1200 FILLER_41_293
*1201 FILLER_41_46
*1202 FILLER_41_54
*1203 FILLER_41_57
*1204 FILLER_41_81
*1205 FILLER_41_90
*1206 FILLER_42_109
*1207 FILLER_42_121
*1208 FILLER_42_133
*1209 FILLER_42_139
*1210 FILLER_42_141
*1211 FILLER_42_153
*1212 FILLER_42_165
*1213 FILLER_42_177
*1214 FILLER_42_189
*1215 FILLER_42_195
*1216 FILLER_42_197
*1217 FILLER_42_209
*1218 FILLER_42_221
*1219 FILLER_42_233
*1220 FILLER_42_24
*1221 FILLER_42_245
*1222 FILLER_42_251
*1223 FILLER_42_253
*1224 FILLER_42_265
*1225 FILLER_42_277
*1226 FILLER_42_289
*1227 FILLER_42_29
*1228 FILLER_42_297
*1229 FILLER_42_3
*1230 FILLER_42_53
*1231 FILLER_42_77
*1232 FILLER_42_83
*1233 FILLER_42_85
*1234 FILLER_42_97
*1235 FILLER_43_107
*1236 FILLER_43_111
*1237 FILLER_43_113
*1238 FILLER_43_125
*1239 FILLER_43_137
*1240 FILLER_43_149
*1241 FILLER_43_16
*1242 FILLER_43_161
*1243 FILLER_43_167
*1244 FILLER_43_169
*1245 FILLER_43_181
*1246 FILLER_43_193
*1247 FILLER_43_20
*1248 FILLER_43_205
*1249 FILLER_43_217
*1250 FILLER_43_223
*1251 FILLER_43_225
*1252 FILLER_43_237
*1253 FILLER_43_249
*1254 FILLER_43_261
*1255 FILLER_43_273
*1256 FILLER_43_279
*1257 FILLER_43_281
*1258 FILLER_43_293
*1259 FILLER_43_41
*1260 FILLER_43_52
*1261 FILLER_43_57
*1262 FILLER_43_63
*1263 FILLER_43_71
*1264 FILLER_43_83
*1265 FILLER_43_95
*1266 FILLER_44_109
*1267 FILLER_44_121
*1268 FILLER_44_133
*1269 FILLER_44_139
*1270 FILLER_44_141
*1271 FILLER_44_153
*1272 FILLER_44_165
*1273 FILLER_44_177
*1274 FILLER_44_189
*1275 FILLER_44_195
*1276 FILLER_44_197
*1277 FILLER_44_209
*1278 FILLER_44_221
*1279 FILLER_44_233
*1280 FILLER_44_24
*1281 FILLER_44_245
*1282 FILLER_44_251
*1283 FILLER_44_253
*1284 FILLER_44_265
*1285 FILLER_44_277
*1286 FILLER_44_289
*1287 FILLER_44_29
*1288 FILLER_44_297
*1289 FILLER_44_3
*1290 FILLER_44_53
*1291 FILLER_44_64
*1292 FILLER_44_75
*1293 FILLER_44_83
*1294 FILLER_44_85
*1295 FILLER_44_97
*1296 FILLER_45_100
*1297 FILLER_45_113
*1298 FILLER_45_12
*1299 FILLER_45_125
*1300 FILLER_45_137
*1301 FILLER_45_149
*1302 FILLER_45_161
*1303 FILLER_45_167
*1304 FILLER_45_169
*1305 FILLER_45_181
*1306 FILLER_45_193
*1307 FILLER_45_205
*1308 FILLER_45_217
*1309 FILLER_45_223
*1310 FILLER_45_225
*1311 FILLER_45_237
*1312 FILLER_45_249
*1313 FILLER_45_261
*1314 FILLER_45_273
*1315 FILLER_45_279
*1316 FILLER_45_281
*1317 FILLER_45_293
*1318 FILLER_45_3
*1319 FILLER_45_36
*1320 FILLER_45_40
*1321 FILLER_45_48
*1322 FILLER_45_64
*1323 FILLER_45_76
*1324 FILLER_45_88
*1325 FILLER_46_109
*1326 FILLER_46_121
*1327 FILLER_46_133
*1328 FILLER_46_139
*1329 FILLER_46_141
*1330 FILLER_46_153
*1331 FILLER_46_165
*1332 FILLER_46_177
*1333 FILLER_46_189
*1334 FILLER_46_195
*1335 FILLER_46_197
*1336 FILLER_46_209
*1337 FILLER_46_221
*1338 FILLER_46_233
*1339 FILLER_46_24
*1340 FILLER_46_245
*1341 FILLER_46_251
*1342 FILLER_46_253
*1343 FILLER_46_265
*1344 FILLER_46_277
*1345 FILLER_46_289
*1346 FILLER_46_29
*1347 FILLER_46_297
*1348 FILLER_46_3
*1349 FILLER_46_53
*1350 FILLER_46_65
*1351 FILLER_46_77
*1352 FILLER_46_83
*1353 FILLER_46_85
*1354 FILLER_46_97
*1355 FILLER_47_105
*1356 FILLER_47_111
*1357 FILLER_47_113
*1358 FILLER_47_125
*1359 FILLER_47_137
*1360 FILLER_47_149
*1361 FILLER_47_161
*1362 FILLER_47_167
*1363 FILLER_47_169
*1364 FILLER_47_181
*1365 FILLER_47_193
*1366 FILLER_47_205
*1367 FILLER_47_217
*1368 FILLER_47_223
*1369 FILLER_47_225
*1370 FILLER_47_237
*1371 FILLER_47_249
*1372 FILLER_47_261
*1373 FILLER_47_27
*1374 FILLER_47_273
*1375 FILLER_47_279
*1376 FILLER_47_281
*1377 FILLER_47_293
*1378 FILLER_47_3
*1379 FILLER_47_35
*1380 FILLER_47_49
*1381 FILLER_47_55
*1382 FILLER_47_57
*1383 FILLER_47_69
*1384 FILLER_47_81
*1385 FILLER_47_93
*1386 FILLER_48_109
*1387 FILLER_48_121
*1388 FILLER_48_133
*1389 FILLER_48_139
*1390 FILLER_48_141
*1391 FILLER_48_153
*1392 FILLER_48_165
*1393 FILLER_48_177
*1394 FILLER_48_189
*1395 FILLER_48_195
*1396 FILLER_48_197
*1397 FILLER_48_209
*1398 FILLER_48_221
*1399 FILLER_48_233
*1400 FILLER_48_24
*1401 FILLER_48_245
*1402 FILLER_48_251
*1403 FILLER_48_253
*1404 FILLER_48_265
*1405 FILLER_48_277
*1406 FILLER_48_289
*1407 FILLER_48_297
*1408 FILLER_48_3
*1409 FILLER_48_37
*1410 FILLER_48_49
*1411 FILLER_48_61
*1412 FILLER_48_73
*1413 FILLER_48_81
*1414 FILLER_48_85
*1415 FILLER_48_97
*1416 FILLER_49_105
*1417 FILLER_49_111
*1418 FILLER_49_113
*1419 FILLER_49_125
*1420 FILLER_49_137
*1421 FILLER_49_149
*1422 FILLER_49_16
*1423 FILLER_49_161
*1424 FILLER_49_167
*1425 FILLER_49_169
*1426 FILLER_49_181
*1427 FILLER_49_193
*1428 FILLER_49_205
*1429 FILLER_49_217
*1430 FILLER_49_223
*1431 FILLER_49_225
*1432 FILLER_49_237
*1433 FILLER_49_249
*1434 FILLER_49_261
*1435 FILLER_49_273
*1436 FILLER_49_279
*1437 FILLER_49_28
*1438 FILLER_49_281
*1439 FILLER_49_293
*1440 FILLER_49_40
*1441 FILLER_49_52
*1442 FILLER_49_57
*1443 FILLER_49_69
*1444 FILLER_49_81
*1445 FILLER_49_93
*1446 FILLER_4_109
*1447 FILLER_4_121
*1448 FILLER_4_133
*1449 FILLER_4_139
*1450 FILLER_4_141
*1451 FILLER_4_15
*1452 FILLER_4_153
*1453 FILLER_4_165
*1454 FILLER_4_177
*1455 FILLER_4_189
*1456 FILLER_4_195
*1457 FILLER_4_197
*1458 FILLER_4_209
*1459 FILLER_4_221
*1460 FILLER_4_233
*1461 FILLER_4_245
*1462 FILLER_4_251
*1463 FILLER_4_253
*1464 FILLER_4_265
*1465 FILLER_4_27
*1466 FILLER_4_277
*1467 FILLER_4_289
*1468 FILLER_4_29
*1469 FILLER_4_297
*1470 FILLER_4_3
*1471 FILLER_4_41
*1472 FILLER_4_53
*1473 FILLER_4_65
*1474 FILLER_4_77
*1475 FILLER_4_83
*1476 FILLER_4_85
*1477 FILLER_4_97
*1478 FILLER_50_109
*1479 FILLER_50_121
*1480 FILLER_50_133
*1481 FILLER_50_139
*1482 FILLER_50_141
*1483 FILLER_50_15
*1484 FILLER_50_153
*1485 FILLER_50_165
*1486 FILLER_50_177
*1487 FILLER_50_189
*1488 FILLER_50_195
*1489 FILLER_50_197
*1490 FILLER_50_209
*1491 FILLER_50_221
*1492 FILLER_50_233
*1493 FILLER_50_245
*1494 FILLER_50_251
*1495 FILLER_50_253
*1496 FILLER_50_265
*1497 FILLER_50_27
*1498 FILLER_50_277
*1499 FILLER_50_289
*1500 FILLER_50_29
*1501 FILLER_50_297
*1502 FILLER_50_3
*1503 FILLER_50_41
*1504 FILLER_50_53
*1505 FILLER_50_65
*1506 FILLER_50_77
*1507 FILLER_50_83
*1508 FILLER_50_85
*1509 FILLER_50_97
*1510 FILLER_51_105
*1511 FILLER_51_111
*1512 FILLER_51_113
*1513 FILLER_51_125
*1514 FILLER_51_137
*1515 FILLER_51_149
*1516 FILLER_51_15
*1517 FILLER_51_161
*1518 FILLER_51_167
*1519 FILLER_51_169
*1520 FILLER_51_181
*1521 FILLER_51_193
*1522 FILLER_51_205
*1523 FILLER_51_217
*1524 FILLER_51_223
*1525 FILLER_51_225
*1526 FILLER_51_237
*1527 FILLER_51_249
*1528 FILLER_51_261
*1529 FILLER_51_27
*1530 FILLER_51_273
*1531 FILLER_51_279
*1532 FILLER_51_281
*1533 FILLER_51_293
*1534 FILLER_51_3
*1535 FILLER_51_39
*1536 FILLER_51_51
*1537 FILLER_51_55
*1538 FILLER_51_57
*1539 FILLER_51_69
*1540 FILLER_51_81
*1541 FILLER_51_93
*1542 FILLER_52_109
*1543 FILLER_52_121
*1544 FILLER_52_133
*1545 FILLER_52_139
*1546 FILLER_52_141
*1547 FILLER_52_153
*1548 FILLER_52_16
*1549 FILLER_52_165
*1550 FILLER_52_177
*1551 FILLER_52_189
*1552 FILLER_52_195
*1553 FILLER_52_197
*1554 FILLER_52_209
*1555 FILLER_52_221
*1556 FILLER_52_233
*1557 FILLER_52_245
*1558 FILLER_52_251
*1559 FILLER_52_253
*1560 FILLER_52_265
*1561 FILLER_52_277
*1562 FILLER_52_289
*1563 FILLER_52_29
*1564 FILLER_52_297
*1565 FILLER_52_41
*1566 FILLER_52_53
*1567 FILLER_52_65
*1568 FILLER_52_77
*1569 FILLER_52_83
*1570 FILLER_52_85
*1571 FILLER_52_97
*1572 FILLER_53_105
*1573 FILLER_53_111
*1574 FILLER_53_113
*1575 FILLER_53_125
*1576 FILLER_53_137
*1577 FILLER_53_149
*1578 FILLER_53_15
*1579 FILLER_53_161
*1580 FILLER_53_167
*1581 FILLER_53_169
*1582 FILLER_53_181
*1583 FILLER_53_193
*1584 FILLER_53_205
*1585 FILLER_53_217
*1586 FILLER_53_223
*1587 FILLER_53_225