*SPEF "ieee 1481-1999"
*DESIGN "jleightcap_top"
*DATE "11:11:11 Fri 11 11, 1111"
*VENDOR "OpenRCX"
*PROGRAM "Parallel Extraction"
*VERSION "1.0"
*DESIGN_FLOW "NAME_SCOPE LOCAL" "PIN_CAP NONE"
*DIVIDER /
*DELIMITER :
*BUS_DELIMITER []
*T_UNIT 1 NS
*C_UNIT 1 PF
*R_UNIT 1 OHM
*L_UNIT 1 HENRY

*NAME_MAP
*1 io_in[0]
*2 io_in[1]
*3 io_in[2]
*4 io_in[3]
*5 io_in[4]
*6 io_in[5]
*7 io_in[6]
*8 io_in[7]
*9 io_out[0]
*10 io_out[1]
*11 io_out[2]
*12 io_out[3]
*13 io_out[4]
*14 net8
*15 net9
*16 io_out[7]
*19 _000_
*20 _001_
*21 _002_
*22 _003_
*23 _004_
*24 _005_
*25 _006_
*26 _007_
*27 _008_
*28 _009_
*29 _010_
*30 _011_
*31 _012_
*32 _013_
*33 _014_
*34 _015_
*35 _016_
*36 _017_
*37 _018_
*38 _019_
*39 _020_
*40 _021_
*41 _022_
*42 _023_
*43 _024_
*44 _025_
*45 _026_
*46 _027_
*47 _028_
*48 _029_
*49 _030_
*50 _031_
*51 _032_
*52 _033_
*53 _034_
*54 _035_
*55 _036_
*56 _037_
*57 _038_
*58 _039_
*59 _040_
*60 _041_
*61 _042_
*62 _043_
*63 _044_
*64 _045_
*65 _046_
*66 _047_
*67 _048_
*68 _049_
*69 _050_
*70 _051_
*71 _052_
*72 _053_
*73 _054_
*74 _055_
*75 _056_
*76 _057_
*77 _058_
*78 _059_
*79 _060_
*80 _061_
*81 _062_
*82 _063_
*83 _064_
*84 _065_
*85 _066_
*86 _067_
*87 _068_
*88 _069_
*89 _070_
*90 _071_
*91 _072_
*92 _073_
*93 _074_
*94 _075_
*95 _076_
*96 _077_
*97 _078_
*98 _079_
*99 _080_
*100 _081_
*101 _082_
*102 _083_
*103 _084_
*104 _085_
*105 _086_
*106 _087_
*107 _088_
*108 _089_
*109 _090_
*110 _091_
*111 _092_
*112 _093_
*113 _094_
*114 _095_
*115 _096_
*116 _097_
*117 _098_
*118 _099_
*119 _100_
*120 _101_
*121 _102_
*122 _103_
*123 _104_
*124 _105_
*125 _106_
*126 _107_
*127 _108_
*128 _109_
*129 _110_
*130 _111_
*131 _112_
*132 _113_
*133 _114_
*134 _115_
*135 _116_
*136 _117_
*137 _118_
*138 _119_
*139 _120_
*140 _121_
*141 _122_
*142 _123_
*143 _124_
*144 _125_
*145 _126_
*146 _127_
*147 _128_
*148 _129_
*149 _130_
*150 _131_
*151 _132_
*152 _133_
*153 _134_
*154 _135_
*155 _136_
*156 _137_
*157 _138_
*158 _139_
*159 _140_
*160 _141_
*161 _142_
*162 _143_
*163 _144_
*164 _145_
*165 _146_
*166 _147_
*167 _148_
*168 _149_
*169 _150_
*170 _151_
*171 _152_
*172 _153_
*173 _154_
*174 _155_
*175 _156_
*176 _157_
*177 _158_
*178 _159_
*179 _160_
*180 _161_
*181 _162_
*182 _163_
*183 _164_
*184 _165_
*185 _166_
*186 _167_
*187 _168_
*188 _169_
*189 _170_
*190 _171_
*191 _172_
*192 _173_
*193 _174_
*194 _175_
*195 _176_
*196 _177_
*197 _178_
*198 _179_
*199 _180_
*200 _181_
*201 _182_
*202 _183_
*203 _184_
*204 _185_
*205 _186_
*206 _187_
*207 _188_
*208 _189_
*209 _190_
*210 _191_
*211 _192_
*212 _193_
*213 _194_
*214 _195_
*215 _196_
*216 _197_
*217 _198_
*218 _199_
*219 _200_
*220 _201_
*221 _202_
*222 _203_
*223 _204_
*224 _205_
*225 _206_
*226 _207_
*227 _208_
*228 _209_
*229 _210_
*230 _211_
*231 _212_
*232 _213_
*233 _214_
*234 _215_
*235 _216_
*236 _217_
*237 _218_
*238 _219_
*239 _220_
*240 _221_
*241 _222_
*242 _223_
*243 _224_
*244 _225_
*245 _226_
*246 _227_
*247 _228_
*248 _229_
*249 _230_
*250 _231_
*251 _232_
*252 _233_
*253 _234_
*254 _235_
*255 _236_
*256 _237_
*257 _238_
*258 _239_
*259 _240_
*260 _241_
*261 _242_
*262 _243_
*263 _244_
*264 _245_
*265 _246_
*266 _247_
*267 _248_
*268 _249_
*269 _250_
*270 _251_
*271 _252_
*272 _253_
*273 _254_
*274 _255_
*275 _256_
*276 _257_
*277 _258_
*278 _259_
*279 _260_
*280 _261_
*281 _262_
*282 _263_
*283 _264_
*284 _265_
*285 _266_
*286 _267_
*287 _268_
*288 _269_
*289 _270_
*290 _271_
*291 _272_
*292 _273_
*293 _274_
*294 _275_
*295 _276_
*296 _277_
*297 _278_
*298 _279_
*299 _280_
*300 _281_
*301 _282_
*302 _283_
*303 _284_
*304 _285_
*305 _286_
*306 _287_
*307 _288_
*308 _289_
*309 _290_
*310 _291_
*311 _292_
*312 _293_
*313 _294_
*314 _295_
*315 _296_
*316 _297_
*317 _298_
*318 _299_
*319 _300_
*320 _top\.j
*321 _top\.s1\[10\]
*322 _top\.s1\[11\]
*323 _top\.s1\[12\]
*324 _top\.s1\[13\]
*325 _top\.s1\[14\]
*326 _top\.s1\[15\]
*327 _top\.s1\[16\]
*328 _top\.s1\[17\]
*329 _top\.s1\[18\]
*330 _top\.s1\[19\]
*331 _top\.s1\[1\]
*332 _top\.s1\[20\]
*333 _top\.s1\[21\]
*334 _top\.s1\[22\]
*335 _top\.s1\[23\]
*336 _top\.s1\[24\]
*337 _top\.s1\[25\]
*338 _top\.s1\[26\]
*339 _top\.s1\[27\]
*340 _top\.s1\[28\]
*341 _top\.s1\[29\]
*342 _top\.s1\[2\]
*343 _top\.s1\[30\]
*344 _top\.s1\[31\]
*345 _top\.s1\[32\]
*346 _top\.s1\[33\]
*347 _top\.s1\[34\]
*348 _top\.s1\[35\]
*349 _top\.s1\[36\]
*350 _top\.s1\[37\]
*351 _top\.s1\[38\]
*352 _top\.s1\[39\]
*353 _top\.s1\[3\]
*354 _top\.s1\[40\]
*355 _top\.s1\[41\]
*356 _top\.s1\[42\]
*357 _top\.s1\[43\]
*358 _top\.s1\[4\]
*359 _top\.s1\[5\]
*360 _top\.s1\[6\]
*361 _top\.s1\[7\]
*362 _top\.s1\[8\]
*363 _top\.s1\[9\]
*364 clknet_0_io_in[0]
*365 clknet_2_0__leaf_io_in[0]
*366 clknet_2_1__leaf_io_in[0]
*367 clknet_2_2__leaf_io_in[0]
*368 clknet_2_3__leaf_io_in[0]
*369 net1
*370 net2
*371 net3
*372 net4
*373 net5
*374 net6
*375 net7
*376 ANTENNA_0
*377 ANTENNA_1
*378 ANTENNA_2
*379 ANTENNA_3
*380 ANTENNA_4
*381 ANTENNA_5
*382 FILLER_0_109
*383 FILLER_0_113
*384 FILLER_0_124
*385 FILLER_0_136
*386 FILLER_0_141
*387 FILLER_0_153
*388 FILLER_0_165
*389 FILLER_0_169
*390 FILLER_0_181
*391 FILLER_0_193
*392 FILLER_0_197
*393 FILLER_0_209
*394 FILLER_0_221
*395 FILLER_0_225
*396 FILLER_0_23
*397 FILLER_0_237
*398 FILLER_0_249
*399 FILLER_0_253
*400 FILLER_0_265
*401 FILLER_0_27
*402 FILLER_0_277
*403 FILLER_0_281
*404 FILLER_0_293
*405 FILLER_0_49
*406 FILLER_0_55
*407 FILLER_0_77
*408 FILLER_0_83
*409 FILLER_0_85
*410 FILLER_0_97
*411 FILLER_10_109
*412 FILLER_10_124
*413 FILLER_10_136
*414 FILLER_10_141
*415 FILLER_10_153
*416 FILLER_10_165
*417 FILLER_10_177
*418 FILLER_10_189
*419 FILLER_10_195
*420 FILLER_10_197
*421 FILLER_10_209
*422 FILLER_10_221
*423 FILLER_10_233
*424 FILLER_10_24
*425 FILLER_10_245
*426 FILLER_10_251
*427 FILLER_10_253
*428 FILLER_10_265
*429 FILLER_10_277
*430 FILLER_10_289
*431 FILLER_10_29
*432 FILLER_10_297
*433 FILLER_10_33
*434 FILLER_10_54
*435 FILLER_10_58
*436 FILLER_10_80
*437 FILLER_10_85
*438 FILLER_10_97
*439 FILLER_11_102
*440 FILLER_11_110
*441 FILLER_11_113
*442 FILLER_11_12
*443 FILLER_11_121
*444 FILLER_11_127
*445 FILLER_11_139
*446 FILLER_11_151
*447 FILLER_11_163
*448 FILLER_11_167
*449 FILLER_11_169
*450 FILLER_11_177
*451 FILLER_11_183
*452 FILLER_11_195
*453 FILLER_11_207
*454 FILLER_11_219
*455 FILLER_11_223
*456 FILLER_11_225
*457 FILLER_11_237
*458 FILLER_11_249
*459 FILLER_11_261
*460 FILLER_11_273
*461 FILLER_11_279
*462 FILLER_11_281
*463 FILLER_11_293
*464 FILLER_11_34
*465 FILLER_11_46
*466 FILLER_11_54
*467 FILLER_11_57
*468 FILLER_11_6
*469 FILLER_11_78
*470 FILLER_11_90
*471 FILLER_12_103
*472 FILLER_12_115
*473 FILLER_12_119
*474 FILLER_12_123
*475 FILLER_12_130
*476 FILLER_12_138
*477 FILLER_12_141
*478 FILLER_12_153
*479 FILLER_12_165
*480 FILLER_12_173
*481 FILLER_12_185
*482 FILLER_12_193
*483 FILLER_12_197
*484 FILLER_12_209
*485 FILLER_12_221
*486 FILLER_12_233
*487 FILLER_12_24
*488 FILLER_12_245
*489 FILLER_12_251
*490 FILLER_12_253
*491 FILLER_12_265
*492 FILLER_12_277
*493 FILLER_12_289
*494 FILLER_12_29
*495 FILLER_12_297
*496 FILLER_12_3
*497 FILLER_12_35
*498 FILLER_12_56
*499 FILLER_12_80
*500 FILLER_12_85
*501 FILLER_12_93
*502 FILLER_13_101
*503 FILLER_13_109
*504 FILLER_13_122
*505 FILLER_13_133
*506 FILLER_13_141
*507 FILLER_13_15
*508 FILLER_13_153
*509 FILLER_13_165
*510 FILLER_13_169
*511 FILLER_13_181
*512 FILLER_13_193
*513 FILLER_13_205
*514 FILLER_13_217
*515 FILLER_13_223
*516 FILLER_13_225
*517 FILLER_13_237
*518 FILLER_13_249
*519 FILLER_13_261
*520 FILLER_13_273
*521 FILLER_13_279
*522 FILLER_13_281
*523 FILLER_13_293
*524 FILLER_13_3
*525 FILLER_13_37
*526 FILLER_13_49
*527 FILLER_13_55
*528 FILLER_13_57
*529 FILLER_13_89
*530 FILLER_14_102
*531 FILLER_14_115
*532 FILLER_14_123
*533 FILLER_14_129
*534 FILLER_14_136
*535 FILLER_14_144
*536 FILLER_14_156
*537 FILLER_14_168
*538 FILLER_14_183
*539 FILLER_14_195
*540 FILLER_14_197
*541 FILLER_14_209
*542 FILLER_14_221
*543 FILLER_14_23
*544 FILLER_14_233
*545 FILLER_14_245
*546 FILLER_14_251
*547 FILLER_14_253
*548 FILLER_14_265
*549 FILLER_14_27
*550 FILLER_14_277
*551 FILLER_14_289
*552 FILLER_14_29
*553 FILLER_14_297
*554 FILLER_14_53
*555 FILLER_14_77
*556 FILLER_14_83
*557 FILLER_14_85
*558 FILLER_15_101
*559 FILLER_15_109
*560 FILLER_15_113
*561 FILLER_15_125
*562 FILLER_15_132
*563 FILLER_15_144
*564 FILLER_15_156
*565 FILLER_15_169
*566 FILLER_15_175
*567 FILLER_15_181
*568 FILLER_15_188
*569 FILLER_15_195
*570 FILLER_15_207
*571 FILLER_15_219
*572 FILLER_15_223
*573 FILLER_15_225
*574 FILLER_15_237
*575 FILLER_15_249
*576 FILLER_15_25
*577 FILLER_15_261
*578 FILLER_15_273
*579 FILLER_15_279
*580 FILLER_15_281
*581 FILLER_15_293
*582 FILLER_15_3
*583 FILLER_15_31
*584 FILLER_15_52
*585 FILLER_15_57
*586 FILLER_15_89
*587 FILLER_16_104
*588 FILLER_16_116
*589 FILLER_16_124
*590 FILLER_16_128
*591 FILLER_16_141
*592 FILLER_16_154
*593 FILLER_16_158
*594 FILLER_16_166
*595 FILLER_16_177
*596 FILLER_16_186
*597 FILLER_16_194
*598 FILLER_16_197
*599 FILLER_16_209
*600 FILLER_16_221
*601 FILLER_16_23
*602 FILLER_16_233
*603 FILLER_16_245
*604 FILLER_16_251
*605 FILLER_16_253
*606 FILLER_16_265
*607 FILLER_16_27
*608 FILLER_16_277
*609 FILLER_16_289
*610 FILLER_16_29
*611 FILLER_16_297
*612 FILLER_16_43
*613 FILLER_16_55
*614 FILLER_16_59
*615 FILLER_16_80
*616 FILLER_16_85
*617 FILLER_16_97
*618 FILLER_17_106
*619 FILLER_17_120
*620 FILLER_17_132
*621 FILLER_17_138
*622 FILLER_17_150
*623 FILLER_17_162
*624 FILLER_17_172
*625 FILLER_17_179
*626 FILLER_17_18
*627 FILLER_17_186
*628 FILLER_17_193
*629 FILLER_17_205
*630 FILLER_17_217
*631 FILLER_17_223
*632 FILLER_17_225
*633 FILLER_17_237
*634 FILLER_17_249
*635 FILLER_17_261
*636 FILLER_17_273
*637 FILLER_17_279
*638 FILLER_17_281
*639 FILLER_17_293
*640 FILLER_17_30
*641 FILLER_17_36
*642 FILLER_17_43
*643 FILLER_17_55
*644 FILLER_17_57
*645 FILLER_17_6
*646 FILLER_17_89
*647 FILLER_17_97
*648 FILLER_18_103
*649 FILLER_18_115
*650 FILLER_18_127
*651 FILLER_18_139
*652 FILLER_18_141
*653 FILLER_18_153
*654 FILLER_18_164
*655 FILLER_18_175
*656 FILLER_18_18
*657 FILLER_18_183
*658 FILLER_18_190
*659 FILLER_18_200
*660 FILLER_18_212
*661 FILLER_18_224
*662 FILLER_18_236
*663 FILLER_18_248
*664 FILLER_18_253
*665 FILLER_18_26
*666 FILLER_18_265
*667 FILLER_18_277
*668 FILLER_18_289
*669 FILLER_18_29
*670 FILLER_18_297
*671 FILLER_18_41
*672 FILLER_18_49
*673 FILLER_18_6
*674 FILLER_18_72
*675 FILLER_18_85
*676 FILLER_18_97
*677 FILLER_19_10
*678 FILLER_19_108
*679 FILLER_19_116
*680 FILLER_19_124
*681 FILLER_19_136
*682 FILLER_19_149
*683 FILLER_19_162
*684 FILLER_19_169
*685 FILLER_19_177
*686 FILLER_19_190
*687 FILLER_19_202
*688 FILLER_19_21
*689 FILLER_19_214
*690 FILLER_19_222
*691 FILLER_19_225
*692 FILLER_19_237
*693 FILLER_19_249
*694 FILLER_19_261
*695 FILLER_19_273
*696 FILLER_19_279
*697 FILLER_19_281
*698 FILLER_19_29
*699 FILLER_19_293
*700 FILLER_19_3
*701 FILLER_19_33
*702 FILLER_19_42
*703 FILLER_19_52
*704 FILLER_19_57
*705 FILLER_19_69
*706 FILLER_19_81
*707 FILLER_19_93
*708 FILLER_1_101
*709 FILLER_1_108
*710 FILLER_1_113
*711 FILLER_1_119
*712 FILLER_1_126
*713 FILLER_1_134
*714 FILLER_1_138
*715 FILLER_1_145
*716 FILLER_1_153
*717 FILLER_1_160
*718 FILLER_1_169
*719 FILLER_1_181
*720 FILLER_1_193
*721 FILLER_1_205
*722 FILLER_1_217
*723 FILLER_1_223
*724 FILLER_1_225
*725 FILLER_1_237
*726 FILLER_1_249
*727 FILLER_1_26
*728 FILLER_1_261
*729 FILLER_1_273
*730 FILLER_1_279
*731 FILLER_1_281
*732 FILLER_1_293
*733 FILLER_1_52
*734 FILLER_1_57
*735 FILLER_1_89
*736 FILLER_20_10
*737 FILLER_20_100
*738 FILLER_20_111
*739 FILLER_20_117
*740 FILLER_20_125
*741 FILLER_20_133
*742 FILLER_20_139
*743 FILLER_20_141
*744 FILLER_20_149
*745 FILLER_20_153
*746 FILLER_20_165
*747 FILLER_20_176
*748 FILLER_20_187
*749 FILLER_20_195
*750 FILLER_20_197
*751 FILLER_20_209
*752 FILLER_20_221
*753 FILLER_20_233
*754 FILLER_20_24
*755 FILLER_20_245
*756 FILLER_20_251
*757 FILLER_20_253
*758 FILLER_20_265
*759 FILLER_20_277
*760 FILLER_20_289
*761 FILLER_20_297
*762 FILLER_20_36
*763 FILLER_20_51
*764 FILLER_20_60
*765 FILLER_20_72
*766 FILLER_20_80
*767 FILLER_20_88
*768 FILLER_21_102
*769 FILLER_21_108
*770 FILLER_21_113
*771 FILLER_21_117
*772 FILLER_21_128
*773 FILLER_21_139
*774 FILLER_21_149
*775 FILLER_21_160
*776 FILLER_21_169
*777 FILLER_21_17
*778 FILLER_21_180
*779 FILLER_21_187
*780 FILLER_21_191
*781 FILLER_21_195
*782 FILLER_21_207
*783 FILLER_21_219
*784 FILLER_21_223
*785 FILLER_21_225
*786 FILLER_21_237
*787 FILLER_21_249
*788 FILLER_21_25
*789 FILLER_21_261
*790 FILLER_21_273
*791 FILLER_21_279
*792 FILLER_21_281
*793 FILLER_21_293
*794 FILLER_21_3
*795 FILLER_21_34
*796 FILLER_21_42
*797 FILLER_21_52
*798 FILLER_21_62
*799 FILLER_21_75
*800 FILLER_21_86
*801 FILLER_21_94
*802 FILLER_22_102
*803 FILLER_22_110
*804 FILLER_22_119
*805 FILLER_22_130
*806 FILLER_22_138
*807 FILLER_22_147
*808 FILLER_22_15
*809 FILLER_22_160
*810 FILLER_22_164
*811 FILLER_22_171
*812 FILLER_22_184
*813 FILLER_22_19
*814 FILLER_22_191
*815 FILLER_22_195
*816 FILLER_22_206
*817 FILLER_22_218
*818 FILLER_22_230
*819 FILLER_22_24
*820 FILLER_22_242
*821 FILLER_22_250
*822 FILLER_22_253
*823 FILLER_22_265
*824 FILLER_22_277
*825 FILLER_22_289
*826 FILLER_22_29
*827 FILLER_22_297
*828 FILLER_22_3
*829 FILLER_22_33
*830 FILLER_22_41
*831 FILLER_22_48
*832 FILLER_22_52
*833 FILLER_22_59
*834 FILLER_22_66
*835 FILLER_22_73
*836 FILLER_22_80
*837 FILLER_22_92
*838 FILLER_23_100
*839 FILLER_23_108
*840 FILLER_23_113
*841 FILLER_23_122
*842 FILLER_23_129
*843 FILLER_23_137
*844 FILLER_23_144
*845 FILLER_23_15
*846 FILLER_23_150
*847 FILLER_23_158
*848 FILLER_23_166
*849 FILLER_23_169
*850 FILLER_23_175
*851 FILLER_23_182
*852 FILLER_23_189
*853 FILLER_23_196
*854 FILLER_23_203
*855 FILLER_23_215
*856 FILLER_23_223
*857 FILLER_23_225
*858 FILLER_23_237
*859 FILLER_23_24
*860 FILLER_23_249
*861 FILLER_23_261
*862 FILLER_23_273
*863 FILLER_23_279
*864 FILLER_23_281
*865 FILLER_23_293
*866 FILLER_23_3
*867 FILLER_23_38
*868 FILLER_23_50
*869 FILLER_23_57
*870 FILLER_23_61
*871 FILLER_23_71
*872 FILLER_23_75
*873 FILLER_23_79
*874 FILLER_23_91
*875 FILLER_23_95
*876 FILLER_24_107
*877 FILLER_24_116
*878 FILLER_24_128
*879 FILLER_24_136
*880 FILLER_24_141
*881 FILLER_24_149
*882 FILLER_24_155
*883 FILLER_24_169
*884 FILLER_24_176
*885 FILLER_24_180
*886 FILLER_24_190
*887 FILLER_24_197
*888 FILLER_24_209
*889 FILLER_24_221
*890 FILLER_24_23
*891 FILLER_24_233
*892 FILLER_24_245
*893 FILLER_24_251
*894 FILLER_24_253
*895 FILLER_24_265
*896 FILLER_24_27
*897 FILLER_24_277
*898 FILLER_24_289
*899 FILLER_24_297
*900 FILLER_24_36
*901 FILLER_24_46
*902 FILLER_24_59
*903 FILLER_24_76
*904 FILLER_24_85
*905 FILLER_24_89
*906 FILLER_24_9
*907 FILLER_24_96
*908 FILLER_25_103
*909 FILLER_25_111
*910 FILLER_25_121
*911 FILLER_25_129
*912 FILLER_25_139
*913 FILLER_25_14
*914 FILLER_25_147
*915 FILLER_25_159
*916 FILLER_25_167
*917 FILLER_25_178
*918 FILLER_25_195
*919 FILLER_25_202
*920 FILLER_25_214
*921 FILLER_25_222
*922 FILLER_25_225
*923 FILLER_25_237
*924 FILLER_25_249
*925 FILLER_25_25
*926 FILLER_25_261
*927 FILLER_25_273
*928 FILLER_25_279
*929 FILLER_25_281
*930 FILLER_25_293
*931 FILLER_25_36
*932 FILLER_25_44
*933 FILLER_25_51
*934 FILLER_25_55
*935 FILLER_25_57
*936 FILLER_25_6
*937 FILLER_25_69
*938 FILLER_25_77
*939 FILLER_25_85
*940 FILLER_25_94
*941 FILLER_26_108
*942 FILLER_26_122
*943 FILLER_26_136
*944 FILLER_26_146
*945 FILLER_26_15
*946 FILLER_26_162
*947 FILLER_26_170
*948 FILLER_26_182
*949 FILLER_26_190
*950 FILLER_26_200
*951 FILLER_26_207
*952 FILLER_26_219
*953 FILLER_26_231
*954 FILLER_26_24
*955 FILLER_26_243
*956 FILLER_26_251
*957 FILLER_26_253
*958 FILLER_26_265
*959 FILLER_26_277
*960 FILLER_26_289
*961 FILLER_26_297
*962 FILLER_26_3
*963 FILLER_26_35
*964 FILLER_26_42
*965 FILLER_26_54
*966 FILLER_26_61
*967 FILLER_26_75
*968 FILLER_26_83
*969 FILLER_26_92
*970 FILLER_26_99
*971 FILLER_27_100
*972 FILLER_27_106
*973 FILLER_27_113
*974 FILLER_27_119
*975 FILLER_27_128
*976 FILLER_27_136
*977 FILLER_27_147
*978 FILLER_27_158
*979 FILLER_27_166
*980 FILLER_27_179
*981 FILLER_27_18
*982 FILLER_27_183
*983 FILLER_27_192
*984 FILLER_27_199
*985 FILLER_27_211
*986 FILLER_27_223
*987 FILLER_27_225
*988 FILLER_27_237
*989 FILLER_27_249
*990 FILLER_27_261
*991 FILLER_27_273
*992 FILLER_27_279
*993 FILLER_27_281
*994 FILLER_27_293
*995 FILLER_27_30
*996 FILLER_27_42
*997 FILLER_27_54
*998 FILLER_27_6
*999 FILLER_27_66
*1000 FILLER_27_75
*1001 FILLER_27_81
*1002 FILLER_27_86
*1003 FILLER_27_92
*1004 FILLER_27_96
*1005 FILLER_28_102
*1006 FILLER_28_115
*1007 FILLER_28_122
*1008 FILLER_28_136
*1009 FILLER_28_141
*1010 FILLER_28_15
*1011 FILLER_28_152
*1012 FILLER_28_164
*1013 FILLER_28_172
*1014 FILLER_28_182
*1015 FILLER_28_190
*1016 FILLER_28_197
*1017 FILLER_28_209
*1018 FILLER_28_221
*1019 FILLER_28_233
*1020 FILLER_28_245
*1021 FILLER_28_251
*1022 FILLER_28_253
*1023 FILLER_28_265
*1024 FILLER_28_27
*1025 FILLER_28_277
*1026 FILLER_28_289
*1027 FILLER_28_29
*1028 FILLER_28_297
*1029 FILLER_28_3
*1030 FILLER_28_41
*1031 FILLER_28_53
*1032 FILLER_28_58
*1033 FILLER_28_70
*1034 FILLER_28_80
*1035 FILLER_28_92
*1036 FILLER_29_101
*1037 FILLER_29_108
*1038 FILLER_29_122
*1039 FILLER_29_136
*1040 FILLER_29_15
*1041 FILLER_29_150
*1042 FILLER_29_164
*1043 FILLER_29_179
*1044 FILLER_29_186
*1045 FILLER_29_198
*1046 FILLER_29_210
*1047 FILLER_29_222
*1048 FILLER_29_225
*1049 FILLER_29_237
*1050 FILLER_29_249
*1051 FILLER_29_261
*1052 FILLER_29_27
*1053 FILLER_29_273
*1054 FILLER_29_279
*1055 FILLER_29_281
*1056 FILLER_29_293
*1057 FILLER_29_3
*1058 FILLER_29_32
*1059 FILLER_29_44
*1060 FILLER_29_65
*1061 FILLER_29_73
*1062 FILLER_29_81
*1063 FILLER_29_88
*1064 FILLER_29_96
*1065 FILLER_2_105
*1066 FILLER_2_114
*1067 FILLER_2_123
*1068 FILLER_2_131
*1069 FILLER_2_136
*1070 FILLER_2_141
*1071 FILLER_2_153
*1072 FILLER_2_161
*1073 FILLER_2_166
*1074 FILLER_2_178
*1075 FILLER_2_190
*1076 FILLER_2_203
*1077 FILLER_2_215
*1078 FILLER_2_227
*1079 FILLER_2_239
*1080 FILLER_2_24
*1081 FILLER_2_251
*1082 FILLER_2_253
*1083 FILLER_2_265
*1084 FILLER_2_277
*1085 FILLER_2_289
*1086 FILLER_2_297
*1087 FILLER_2_3
*1088 FILLER_2_50
*1089 FILLER_2_58
*1090 FILLER_2_80
*1091 FILLER_30_100
*1092 FILLER_30_104
*1093 FILLER_30_111
*1094 FILLER_30_115
*1095 FILLER_30_126
*1096 FILLER_30_134
*1097 FILLER_30_141
*1098 FILLER_30_147
*1099 FILLER_30_15
*1100 FILLER_30_158
*1101 FILLER_30_169
*1102 FILLER_30_185
*1103 FILLER_30_193
*1104 FILLER_30_197
*1105 FILLER_30_209
*1106 FILLER_30_221
*1107 FILLER_30_233
*1108 FILLER_30_245
*1109 FILLER_30_251
*1110 FILLER_30_253
*1111 FILLER_30_265
*1112 FILLER_30_27
*1113 FILLER_30_277
*1114 FILLER_30_289
*1115 FILLER_30_297
*1116 FILLER_30_3
*1117 FILLER_30_36
*1118 FILLER_30_44
*1119 FILLER_30_53
*1120 FILLER_30_59
*1121 FILLER_30_65
*1122 FILLER_30_76
*1123 FILLER_30_92
*1124 FILLER_31_106
*1125 FILLER_31_113
*1126 FILLER_31_128
*1127 FILLER_31_141
*1128 FILLER_31_145
*1129 FILLER_31_15
*1130 FILLER_31_156
*1131 FILLER_31_164
*1132 FILLER_31_179
*1133 FILLER_31_191
*1134 FILLER_31_203
*1135 FILLER_31_215
*1136 FILLER_31_223
*1137 FILLER_31_225
*1138 FILLER_31_237
*1139 FILLER_31_249
*1140 FILLER_31_261
*1141 FILLER_31_27
*1142 FILLER_31_273
*1143 FILLER_31_279
*1144 FILLER_31_281
*1145 FILLER_31_293
*1146 FILLER_31_3
*1147 FILLER_31_34
*1148 FILLER_31_46
*1149 FILLER_31_54
*1150 FILLER_31_65
*1151 FILLER_31_72
*1152 FILLER_31_80
*1153 FILLER_31_84
*1154 FILLER_31_93
*1155 FILLER_32_100
*1156 FILLER_32_117
*1157 FILLER_32_123
*1158 FILLER_32_129
*1159 FILLER_32_136
*1160 FILLER_32_149
*1161 FILLER_32_15
*1162 FILLER_32_155
*1163 FILLER_32_163
*1164 FILLER_32_170
*1165 FILLER_32_182
*1166 FILLER_32_194
*1167 FILLER_32_197
*1168 FILLER_32_209
*1169 FILLER_32_221
*1170 FILLER_32_233
*1171 FILLER_32_245
*1172 FILLER_32_251
*1173 FILLER_32_253
*1174 FILLER_32_265
*1175 FILLER_32_27
*1176 FILLER_32_277
*1177 FILLER_32_289
*1178 FILLER_32_29
*1179 FILLER_32_297
*1180 FILLER_32_3
*1181 FILLER_32_41
*1182 FILLER_32_59
*1183 FILLER_32_63
*1184 FILLER_32_72
*1185 FILLER_32_76
*1186 FILLER_32_80
*1187 FILLER_32_85
*1188 FILLER_32_93
*1189 FILLER_33_101
*1190 FILLER_33_108
*1191 FILLER_33_113
*1192 FILLER_33_122
*1193 FILLER_33_131
*1194 FILLER_33_138
*1195 FILLER_33_15
*1196 FILLER_33_150
*1197 FILLER_33_162
*1198 FILLER_33_169
*1199 FILLER_33_181
*1200 FILLER_33_193
*1201 FILLER_33_205
*1202 FILLER_33_217
*1203 FILLER_33_223
*1204 FILLER_33_225
*1205 FILLER_33_237
*1206 FILLER_33_249
*1207 FILLER_33_261
*1208 FILLER_33_273
*1209 FILLER_33_279
*1210 FILLER_33_281
*1211 FILLER_33_293
*1212 FILLER_33_3
*1213 FILLER_33_30
*1214 FILLER_33_42
*1215 FILLER_33_50
*1216 FILLER_33_57
*1217 FILLER_33_66
*1218 FILLER_33_74
*1219 FILLER_33_79
*1220 FILLER_33_92
*1221 FILLER_34_112
*1222 FILLER_34_120
*1223 FILLER_34_125
*1224 FILLER_34_137
*1225 FILLER_34_15
*1226 FILLER_34_151
*1227 FILLER_34_162
*1228 FILLER_34_174
*1229 FILLER_34_186
*1230 FILLER_34_194
*1231 FILLER_34_197
*1232 FILLER_34_209
*1233 FILLER_34_221
*1234 FILLER_34_233
*1235 FILLER_34_245
*1236 FILLER_34_251
*1237 FILLER_34_253
*1238 FILLER_34_265
*1239 FILLER_34_27
*1240 FILLER_34_277
*1241 FILLER_34_289
*1242 FILLER_34_297
*1243 FILLER_34_3
*1244 FILLER_34_36
*1245 FILLER_34_48
*1246 FILLER_34_54
*1247 FILLER_34_61
*1248 FILLER_34_72
*1249 FILLER_34_79
*1250 FILLER_34_83
*1251 FILLER_34_85
*1252 FILLER_34_89
*1253 FILLER_34_99
*1254 FILLER_35_109
*1255 FILLER_35_113
*1256 FILLER_35_119
*1257 FILLER_35_123
*1258 FILLER_35_134
*1259 FILLER_35_146
*1260 FILLER_35_15
*1261 FILLER_35_158
*1262 FILLER_35_166
*1263 FILLER_35_169
*1264 FILLER_35_181
*1265 FILLER_35_193
*1266 FILLER_35_205
*1267 FILLER_35_217
*1268 FILLER_35_223
*1269 FILLER_35_225
*1270 FILLER_35_237
*1271 FILLER_35_249
*1272 FILLER_35_261
*1273 FILLER_35_27
*1274 FILLER_35_273
*1275 FILLER_35_279
*1276 FILLER_35_281
*1277 FILLER_35_293
*1278 FILLER_35_3
*1279 FILLER_35_33
*1280 FILLER_35_45
*1281 FILLER_35_53
*1282 FILLER_35_57
*1283 FILLER_35_72
*1284 FILLER_35_80
*1285 FILLER_35_90
*1286 FILLER_35_97
*1287 FILLER_36_109
*1288 FILLER_36_120
*1289 FILLER_36_132
*1290 FILLER_36_141
*1291 FILLER_36_15
*1292 FILLER_36_153
*1293 FILLER_36_165
*1294 FILLER_36_177
*1295 FILLER_36_189
*1296 FILLER_36_195
*1297 FILLER_36_197
*1298 FILLER_36_209
*1299 FILLER_36_221
*1300 FILLER_36_233
*1301 FILLER_36_245
*1302 FILLER_36_251
*1303 FILLER_36_253
*1304 FILLER_36_265
*1305 FILLER_36_27
*1306 FILLER_36_277
*1307 FILLER_36_289
*1308 FILLER_36_29
*1309 FILLER_36_297
*1310 FILLER_36_3
*1311 FILLER_36_37
*1312 FILLER_36_49
*1313 FILLER_36_61
*1314 FILLER_36_73
*1315 FILLER_36_81
*1316 FILLER_36_85
*1317 FILLER_36_97
*1318 FILLER_37_105
*1319 FILLER_37_111
*1320 FILLER_37_113
*1321 FILLER_37_125
*1322 FILLER_37_137
*1323 FILLER_37_149
*1324 FILLER_37_15
*1325 FILLER_37_161
*1326 FILLER_37_167
*1327 FILLER_37_169
*1328 FILLER_37_181
*1329 FILLER_37_193
*1330 FILLER_37_205
*1331 FILLER_37_217
*1332 FILLER_37_223
*1333 FILLER_37_225
*1334 FILLER_37_237
*1335 FILLER_37_249
*1336 FILLER_37_261
*1337 FILLER_37_27
*1338 FILLER_37_273
*1339 FILLER_37_279
*1340 FILLER_37_281
*1341 FILLER_37_293
*1342 FILLER_37_3
*1343 FILLER_37_47
*1344 FILLER_37_55
*1345 FILLER_37_57
*1346 FILLER_37_69
*1347 FILLER_37_81
*1348 FILLER_37_93
*1349 FILLER_38_109
*1350 FILLER_38_121
*1351 FILLER_38_133
*1352 FILLER_38_139
*1353 FILLER_38_141
*1354 FILLER_38_15
*1355 FILLER_38_153
*1356 FILLER_38_165
*1357 FILLER_38_177
*1358 FILLER_38_189
*1359 FILLER_38_195
*1360 FILLER_38_197
*1361 FILLER_38_209
*1362 FILLER_38_221
*1363 FILLER_38_233
*1364 FILLER_38_245
*1365 FILLER_38_251
*1366 FILLER_38_253
*1367 FILLER_38_265
*1368 FILLER_38_27
*1369 FILLER_38_277
*1370 FILLER_38_289
*1371 FILLER_38_29
*1372 FILLER_38_297
*1373 FILLER_38_3
*1374 FILLER_38_41
*1375 FILLER_38_53
*1376 FILLER_38_65
*1377 FILLER_38_77
*1378 FILLER_38_83
*1379 FILLER_38_85
*1380 FILLER_38_97
*1381 FILLER_39_105
*1382 FILLER_39_111
*1383 FILLER_39_113
*1384 FILLER_39_125
*1385 FILLER_39_133
*1386 FILLER_39_145
*1387 FILLER_39_15
*1388 FILLER_39_157
*1389 FILLER_39_165
*1390 FILLER_39_169
*1391 FILLER_39_181
*1392 FILLER_39_193
*1393 FILLER_39_205
*1394 FILLER_39_217
*1395 FILLER_39_223
*1396 FILLER_39_225
*1397 FILLER_39_237
*1398 FILLER_39_249
*1399 FILLER_39_261
*1400 FILLER_39_27
*1401 FILLER_39_273
*1402 FILLER_39_279
*1403 FILLER_39_281
*1404 FILLER_39_293
*1405 FILLER_39_3
*1406 FILLER_39_35
*1407 FILLER_39_39
*1408 FILLER_39_51
*1409 FILLER_39_55
*1410 FILLER_39_57
*1411 FILLER_39_69
*1412 FILLER_39_81
*1413 FILLER_39_93
*1414 FILLER_3_101
*1415 FILLER_3_109
*1416 FILLER_3_113
*1417 FILLER_3_121
*1418 FILLER_3_127
*1419 FILLER_3_139
*1420 FILLER_3_151
*1421 FILLER_3_163
*1422 FILLER_3_167
*1423 FILLER_3_169
*1424 FILLER_3_181
*1425 FILLER_3_193
*1426 FILLER_3_197
*1427 FILLER_3_206
*1428 FILLER_3_218
*1429 FILLER_3_225
*1430 FILLER_3_237
*1431 FILLER_3_249
*1432 FILLER_3_261
*1433 FILLER_3_273
*1434 FILLER_3_279
*1435 FILLER_3_28
*1436 FILLER_3_281
*1437 FILLER_3_293
*1438 FILLER_3_3
*1439 FILLER_3_52
*1440 FILLER_3_57
*1441 FILLER_3_7
*1442 FILLER_3_89
*1443 FILLER_40_109
*1444 FILLER_40_121
*1445 FILLER_40_133
*1446 FILLER_40_139
*1447 FILLER_40_141
*1448 FILLER_40_15
*1449 FILLER_40_153
*1450 FILLER_40_165
*1451 FILLER_40_177
*1452 FILLER_40_189
*1453 FILLER_40_195
*1454 FILLER_40_197
*1455 FILLER_40_209
*1456 FILLER_40_221
*1457 FILLER_40_233
*1458 FILLER_40_245
*1459 FILLER_40_251
*1460 FILLER_40_253
*1461 FILLER_40_265
*1462 FILLER_40_27
*1463 FILLER_40_277
*1464 FILLER_40_289
*1465 FILLER_40_29
*1466 FILLER_40_297
*1467 FILLER_40_3
*1468 FILLER_40_37
*1469 FILLER_40_43
*1470 FILLER_40_55
*1471 FILLER_40_70
*1472 FILLER_40_82
*1473 FILLER_40_85
*1474 FILLER_40_97
*1475 FILLER_41_101
*1476 FILLER_41_109
*1477 FILLER_41_113
*1478 FILLER_41_125
*1479 FILLER_41_137
*1480 FILLER_41_149
*1481 FILLER_41_15
*1482 FILLER_41_161
*1483 FILLER_41_167
*1484 FILLER_41_169
*1485 FILLER_41_181
*1486 FILLER_41_193
*1487 FILLER_41_205
*1488 FILLER_41_217
*1489 FILLER_41_223
*1490 FILLER_41_225
*1491 FILLER_41_237
*1492 FILLER_41_249
*1493 FILLER_41_261
*1494 FILLER_41_27
*1495 FILLER_41_273
*1496 FILLER_41_279
*1497 FILLER_41_281
*1498 FILLER_41_293
*1499 FILLER_41_3
*1500 FILLER_41_39
*1501 FILLER_41_51
*1502 FILLER_41_55
*1503 FILLER_41_65
*1504 FILLER_41_77
*1505 FILLER_41_89
*1506 FILLER_42_109
*1507 FILLER_42_121
*1508 FILLER_42_133
*1509 FILLER_42_139
*1510 FILLER_42_141
*1511 FILLER_42_15
*1512 FILLER_42_153
*1513 FILLER_42_165
*1514 FILLER_42_177
*1515 FILLER_42_189
*1516 FILLER_42_195
*1517 FILLER_42_197
*1518 FILLER_42_209
*1519 FILLER_42_221
*1520 FILLER_42_233
*1521 FILLER_42_245
*1522 FILLER_42_251
*1523 FILLER_42_253
*1524 FILLER_42_265
*1525 FILLER_42_27
*1526 FILLER_42_277
*1527 FILLER_42_289
*1528 FILLER_42_297
*1529 FILLER_42_3
*1530 FILLER_42_37
*1531 FILLER_42_49
*1532 FILLER_42_61
*1533 FILLER_42_73
*1534 FILLER_42_81
*1535 FILLER_42_85
*1536 FILLER_42_97
*1537 FILLER_43_105
*1538 FILLER_43_111
*1539 FILLER_43_113
*1540 FILLER_43_125
*1541 FILLER_43_137
*1542 FILLER_43_149
*1543 FILLER_43_15
*1544 FILLER_43_161
*1545 FILLER_43_167
*1546 FILLER_43_169
*1547 FILLER_43_181
*1548 FILLER_43_193
*1549 FILLER_43_205
*1550 FILLER_43_217
*1551 FILLER_43_223
*1552 FILLER_43_225
*1553 FILLER_43_237
*1554 FILLER_43_249
*1555 FILLER_43_261
*1556 FILLER_43_27
*1557 FILLER_43_273
*1558 FILLER_43_279
*1559 FILLER_43_281
*1560 FILLER_43_293
*1561 FILLER_43_3
*1562 FILLER_43_39
*1563 FILLER_43_51
*1564 FILLER_43_55
*1565 FILLER_43_57
*1566 FILLER_43_69
*1567 FILLER_43_81
*1568 FILLER_43_93
*1569 FILLER_44_109
*1570 FILLER_44_121
*1571 FILLER_44_133
*1572 FILLER_44_139
*1573 FILLER_44_141
*1574 FILLER_44_15
*1575 FILLER_44_153
*1576 FILLER_44_165
*1577 FILLER_44_177
*1578 FILLER_44_189
*1579 FILLER_44_195
*1580 FILLER_44_197
*1581 FILLER_44_209
*1582 FILLER_44_221
*1583 FILLER_44_233
*1584 FILLER_44_24
*1585 FILLER_44_245
*1586 FILLER_44_251
*1587 FILLER_44_253
*1588 FILLER_44_265
*1589 FILLER_44_277
*1590 FILLER_44_289
*1591 FILLER_44_297
*1592 FILLER_44_3
*1593 FILLER_44_32
*1594 FILLER_44_44
*1595 FILLER_44_56
*1596 FILLER_44_68
*1597 FILLER_44_80
*1598 FILLER_44_85
*1599 FILLER_44_97
*1600 FILLER_45_105
*1601 FILLER_45_111
*1602 FILLER_45_113
*1603 FILLER_45_125
*1604 FILLER_45_137
*1605 FILLER_45_149
*1606 FILLER_45_15
*1607 FILLER_45_161
*1608 FILLER_45_167
*1609 FILLER_45_169
*1610 FILLER_45_181
*1611 FILLER_45_193
*1612 FILLER_45_205
*1613 FILLER_45_217
*1614 FILLER_45_223
*1615 FILLER_45_225
*1616 FILLER_45_237
*1617 FILLER_45_249
*1618 FILLER_45_261
*1619 FILLER_45_27
*1620 FILLER_45_273
*1621 FILLER_45_279
*1622 FILLER_45_281
*1623 FILLER_45_293
*1624 FILLER_45_3
*1625 FILLER_45_39
*1626 FILLER_45_51
*1627 FILLER_45_55
*1628 FILLER_45_57
*1629 FILLER_45_69
*1630 FILLER_45_81
*1631 FILLER_45_93
*1632 FILLER_46_100
*1633 FILLER_46_112
*1634 FILLER_46_124
*1635 FILLER_46_136
*1636 FILLER_46_141
*1637 FILLER_46_15
*1638 FILLER_46_153
*1639 FILLER_46_165
*1640 FILLER_46_177
*1641 FILLER_46_189
*1642 FILLER_46_195
*1643 FILLER_46_197
*1644 FILLER_46_209
*1645 FILLER_46_221
*1646 FILLER_46_233
*1647 FILLER_46_245
*1648 FILLER_46_251
*1649 FILLER_46_253
*1650 FILLER_46_265
*1651 FILLER_46_27
*1652 FILLER_46_277
*1653 FILLER_46_289
*1654 FILLER_46_29
*1655 FILLER_46_297
*1656 FILLER_46_3
*1657 FILLER_46_41
*1658 FILLER_46_53
*1659 FILLER_46_65
*1660 FILLER_46_77
*1661 FILLER_46_83
*1662 FILLER_46_88
*1663 FILLER_47_105
*1664 FILLER_47_111
*1665 FILLER_47_113
*1666 FILLER_47_125
*1667 FILLER_47_137
*1668 FILLER_47_149
*1669 FILLER_47_15
*1670 FILLER_47_161
*1671 FILLER_47_167
*1672 FILLER_47_169
*1673 FILLER_47_181
*1674 FILLER_47_193
*1675 FILLER_47_205
*1676 FILLER_47_217
*1677 FILLER_47_223
*1678 FILLER_47_225
*1679 FILLER_47_237
*1680 FILLER_47_249
*1681 FILLER_47_261
*1682 FILLER_47_27
*1683 FILLER_47_273
*1684 FILLER_47_279
*1685 FILLER_47_281
*1686 FILLER_47_293
*1687 FILLER_47_3
*1688 FILLER_47_39
*1689 FILLER_47_51
*1690 FILLER_47_55
*1691 FILLER_47_57
*1692 FILLER_47_69
*1693 FILLER_47_81
*1694 FILLER_47_93