*SPEF "ieee 1481-1999"
*DESIGN "jonpaolo02_async_fifo"
*DATE "11:11:11 Fri 11 11, 1111"
*VENDOR "OpenRCX"
*PROGRAM "Parallel Extraction"
*VERSION "1.0"
*DESIGN_FLOW "NAME_SCOPE LOCAL" "PIN_CAP NONE"
*DIVIDER /
*DELIMITER :
*BUS_DELIMITER []
*T_UNIT 1 NS
*C_UNIT 1 PF
*R_UNIT 1 OHM
*L_UNIT 1 HENRY

*NAME_MAP
*1 io_in[0]
*2 io_in[1]
*3 io_in[2]
*4 io_in[3]
*5 io_in[4]
*6 io_in[5]
*7 io_in[6]
*8 io_in[7]
*9 net11
*10 net12
*11 net13
*12 io_out[3]
*13 io_out[4]
*14 io_out[5]
*15 io_out[6]
*16 io_out[7]
*19 _000_
*20 _001_
*21 _002_
*22 _003_
*23 _004_
*24 _005_
*25 _006_
*26 _007_
*27 _008_
*28 _009_
*29 _010_
*30 _011_
*31 _012_
*32 _013_
*33 _014_
*34 _015_
*35 _016_
*36 _017_
*37 _018_
*38 _019_
*39 _020_
*40 _021_
*41 _022_
*42 _023_
*43 _024_
*44 _025_
*45 _026_
*46 _027_
*47 _028_
*48 _029_
*49 _030_
*50 _031_
*51 _032_
*52 _033_
*53 _034_
*54 _035_
*55 _036_
*56 _037_
*57 _038_
*58 _039_
*59 _040_
*60 _041_
*61 _042_
*62 _043_
*63 _044_
*64 _045_
*65 _046_
*66 _047_
*67 _048_
*68 _049_
*69 _050_
*70 _051_
*71 _052_
*72 _053_
*73 _054_
*74 _055_
*75 _056_
*76 _057_
*77 _058_
*78 _059_
*79 _060_
*80 _061_
*81 _062_
*82 _063_
*83 _064_
*84 _065_
*85 _066_
*86 _067_
*87 _068_
*88 _069_
*89 _070_
*90 _071_
*91 _072_
*92 _073_
*93 _074_
*94 _075_
*95 _076_
*96 _077_
*97 _078_
*98 _079_
*99 _080_
*100 _081_
*101 _082_
*102 _083_
*103 _084_
*104 _085_
*105 _086_
*106 _087_
*107 _088_
*108 _089_
*109 _090_
*110 _091_
*111 _092_
*112 _093_
*113 _094_
*114 _095_
*115 _096_
*116 _097_
*117 _098_
*118 _099_
*119 _100_
*120 _101_
*121 _102_
*122 _103_
*123 _104_
*124 _105_
*125 _106_
*126 _107_
*127 _108_
*128 _109_
*129 _110_
*130 _111_
*131 _112_
*132 _113_
*133 _114_
*134 _115_
*135 _116_
*136 _117_
*137 _118_
*138 _119_
*139 _120_
*140 _121_
*141 _122_
*142 _123_
*143 _124_
*144 _125_
*145 _126_
*146 _127_
*147 _128_
*148 _129_
*149 _130_
*150 _131_
*151 _132_
*152 _133_
*153 _134_
*154 _135_
*155 _136_
*156 clknet_0_io_in[0]
*157 clknet_2_0__leaf_io_in[0]
*158 clknet_2_1__leaf_io_in[0]
*159 clknet_2_2__leaf_io_in[0]
*160 clknet_2_3__leaf_io_in[0]
*161 net1
*162 net10
*163 net14
*164 net15
*165 net16
*166 net17
*167 net2
*168 net3
*169 net4
*170 net5
*171 net6
*172 net7
*173 net8
*174 net9
*175 top\.backend\.empty
*176 top\.backend\.rptr\[0\]
*177 top\.backend\.rptr\[1\]
*178 top\.backend\.rptr\[2\]
*179 top\.backend\.rptr\[3\]
*180 top\.backend\.rptr_b2g\.gray\[0\]
*181 top\.backend\.rptr_b2g\.gray\[1\]
*182 top\.backend\.rptr_b2g\.gray\[2\]
*183 top\.backend\.wptr_gray1\[0\]
*184 top\.backend\.wptr_gray1\[1\]
*185 top\.backend\.wptr_gray1\[2\]
*186 top\.backend\.wptr_gray1\[3\]
*187 top\.backend\.wptr_gray2\[0\]
*188 top\.backend\.wptr_gray2\[1\]
*189 top\.backend\.wptr_gray2\[2\]
*190 top\.backend\.wptr_gray2\[3\]
*191 top\.backend\.wptr_gray\[0\]
*192 top\.backend\.wptr_gray\[1\]
*193 top\.backend\.wptr_gray\[2\]
*194 top\.backend\.wptr_gray\[3\]
*195 top\.data\[0\]\[0\]
*196 top\.data\[0\]\[1\]
*197 top\.data\[0\]\[2\]
*198 top\.data\[1\]\[0\]
*199 top\.data\[1\]\[1\]
*200 top\.data\[1\]\[2\]
*201 top\.data\[2\]\[0\]
*202 top\.data\[2\]\[1\]
*203 top\.data\[2\]\[2\]
*204 top\.data\[3\]\[0\]
*205 top\.data\[3\]\[1\]
*206 top\.data\[3\]\[2\]
*207 top\.data\[4\]\[0\]
*208 top\.data\[4\]\[1\]
*209 top\.data\[4\]\[2\]
*210 top\.data\[5\]\[0\]
*211 top\.data\[5\]\[1\]
*212 top\.data\[5\]\[2\]
*213 top\.data\[6\]\[0\]
*214 top\.data\[6\]\[1\]
*215 top\.data\[6\]\[2\]
*216 top\.data\[7\]\[0\]
*217 top\.data\[7\]\[1\]
*218 top\.data\[7\]\[2\]
*219 top\.frontend\.full
*220 top\.frontend\.rptr_gray1\[0\]
*221 top\.frontend\.rptr_gray1\[1\]
*222 top\.frontend\.rptr_gray1\[2\]
*223 top\.frontend\.rptr_gray1\[3\]
*224 top\.frontend\.rptr_gray2\[0\]
*225 top\.frontend\.rptr_gray2\[1\]
*226 top\.frontend\.rptr_gray2\[2\]
*227 top\.frontend\.rptr_gray2\[3\]
*228 top\.frontend\.wptr\[0\]
*229 top\.frontend\.wptr\[1\]
*230 top\.frontend\.wptr\[2\]
*231 ANTENNA_0
*232 FILLER_0_101
*233 FILLER_0_109
*234 FILLER_0_129
*235 FILLER_0_133
*236 FILLER_0_139
*237 FILLER_0_141
*238 FILLER_0_153
*239 FILLER_0_165
*240 FILLER_0_169
*241 FILLER_0_181
*242 FILLER_0_193
*243 FILLER_0_197
*244 FILLER_0_209
*245 FILLER_0_221
*246 FILLER_0_225
*247 FILLER_0_237
*248 FILLER_0_24
*249 FILLER_0_249
*250 FILLER_0_253
*251 FILLER_0_265
*252 FILLER_0_277
*253 FILLER_0_281
*254 FILLER_0_29
*255 FILLER_0_293
*256 FILLER_0_3
*257 FILLER_0_52
*258 FILLER_0_57
*259 FILLER_0_7
*260 FILLER_0_80
*261 FILLER_10_110
*262 FILLER_10_122
*263 FILLER_10_133
*264 FILLER_10_139
*265 FILLER_10_141
*266 FILLER_10_153
*267 FILLER_10_165
*268 FILLER_10_177
*269 FILLER_10_189
*270 FILLER_10_195
*271 FILLER_10_197
*272 FILLER_10_209
*273 FILLER_10_21
*274 FILLER_10_221
*275 FILLER_10_233
*276 FILLER_10_245
*277 FILLER_10_251
*278 FILLER_10_253
*279 FILLER_10_265
*280 FILLER_10_27
*281 FILLER_10_277
*282 FILLER_10_289
*283 FILLER_10_297
*284 FILLER_10_3
*285 FILLER_10_45
*286 FILLER_10_65
*287 FILLER_10_77
*288 FILLER_10_83
*289 FILLER_10_85
*290 FILLER_10_89
*291 FILLER_11_103
*292 FILLER_11_111
*293 FILLER_11_113
*294 FILLER_11_117
*295 FILLER_11_121
*296 FILLER_11_14
*297 FILLER_11_148
*298 FILLER_11_160
*299 FILLER_11_169
*300 FILLER_11_181
*301 FILLER_11_193
*302 FILLER_11_205
*303 FILLER_11_217
*304 FILLER_11_223
*305 FILLER_11_225
*306 FILLER_11_237
*307 FILLER_11_249
*308 FILLER_11_261
*309 FILLER_11_273
*310 FILLER_11_279
*311 FILLER_11_281
*312 FILLER_11_293
*313 FILLER_11_33
*314 FILLER_11_45
*315 FILLER_11_53
*316 FILLER_11_57
*317 FILLER_11_6
*318 FILLER_11_69
*319 FILLER_11_81
*320 FILLER_11_87
*321 FILLER_11_94
*322 FILLER_12_114
*323 FILLER_12_129
*324 FILLER_12_137
*325 FILLER_12_161
*326 FILLER_12_167
*327 FILLER_12_171
*328 FILLER_12_183
*329 FILLER_12_188
*330 FILLER_12_197
*331 FILLER_12_209
*332 FILLER_12_21
*333 FILLER_12_221
*334 FILLER_12_233
*335 FILLER_12_245
*336 FILLER_12_251
*337 FILLER_12_253
*338 FILLER_12_265
*339 FILLER_12_27
*340 FILLER_12_277
*341 FILLER_12_289
*342 FILLER_12_297
*343 FILLER_12_3
*344 FILLER_12_45
*345 FILLER_12_57
*346 FILLER_12_69
*347 FILLER_12_81
*348 FILLER_12_85
*349 FILLER_12_91
*350 FILLER_13_103
*351 FILLER_13_111
*352 FILLER_13_113
*353 FILLER_13_125
*354 FILLER_13_133
*355 FILLER_13_156
*356 FILLER_13_169
*357 FILLER_13_181
*358 FILLER_13_193
*359 FILLER_13_205
*360 FILLER_13_217
*361 FILLER_13_223
*362 FILLER_13_225
*363 FILLER_13_237
*364 FILLER_13_24
*365 FILLER_13_249
*366 FILLER_13_261
*367 FILLER_13_273
*368 FILLER_13_279
*369 FILLER_13_281
*370 FILLER_13_293
*371 FILLER_13_3
*372 FILLER_13_36
*373 FILLER_13_48
*374 FILLER_13_57
*375 FILLER_13_7
*376 FILLER_13_72
*377 FILLER_13_79
*378 FILLER_13_91
*379 FILLER_14_109
*380 FILLER_14_121
*381 FILLER_14_133
*382 FILLER_14_139
*383 FILLER_14_141
*384 FILLER_14_153
*385 FILLER_14_165
*386 FILLER_14_177
*387 FILLER_14_189
*388 FILLER_14_195
*389 FILLER_14_197
*390 FILLER_14_209
*391 FILLER_14_221
*392 FILLER_14_233
*393 FILLER_14_24
*394 FILLER_14_245
*395 FILLER_14_251
*396 FILLER_14_253
*397 FILLER_14_265
*398 FILLER_14_277
*399 FILLER_14_289
*400 FILLER_14_29
*401 FILLER_14_297
*402 FILLER_14_3
*403 FILLER_14_41
*404 FILLER_14_53
*405 FILLER_14_68
*406 FILLER_14_7
*407 FILLER_14_75
*408 FILLER_14_83
*409 FILLER_14_85
*410 FILLER_14_97
*411 FILLER_15_108
*412 FILLER_15_113
*413 FILLER_15_125
*414 FILLER_15_131
*415 FILLER_15_15
*416 FILLER_15_152
*417 FILLER_15_164
*418 FILLER_15_169
*419 FILLER_15_181
*420 FILLER_15_193
*421 FILLER_15_205
*422 FILLER_15_217
*423 FILLER_15_223
*424 FILLER_15_225
*425 FILLER_15_237
*426 FILLER_15_249
*427 FILLER_15_261
*428 FILLER_15_27
*429 FILLER_15_273
*430 FILLER_15_279
*431 FILLER_15_281
*432 FILLER_15_293
*433 FILLER_15_3
*434 FILLER_15_39
*435 FILLER_15_51
*436 FILLER_15_55
*437 FILLER_15_57
*438 FILLER_15_61
*439 FILLER_15_65
*440 FILLER_15_72
*441 FILLER_15_84
*442 FILLER_15_96
*443 FILLER_16_101
*444 FILLER_16_105
*445 FILLER_16_113
*446 FILLER_16_136
*447 FILLER_16_144
*448 FILLER_16_151
*449 FILLER_16_163
*450 FILLER_16_175
*451 FILLER_16_18
*452 FILLER_16_187
*453 FILLER_16_195
*454 FILLER_16_197
*455 FILLER_16_209
*456 FILLER_16_221
*457 FILLER_16_233
*458 FILLER_16_245
*459 FILLER_16_251
*460 FILLER_16_253
*461 FILLER_16_26
*462 FILLER_16_265
*463 FILLER_16_277
*464 FILLER_16_289
*465 FILLER_16_29
*466 FILLER_16_297
*467 FILLER_16_35
*468 FILLER_16_39
*469 FILLER_16_51
*470 FILLER_16_6
*471 FILLER_16_63
*472 FILLER_16_75
*473 FILLER_16_83
*474 FILLER_16_85
*475 FILLER_16_97
*476 FILLER_17_105
*477 FILLER_17_111
*478 FILLER_17_116
*479 FILLER_17_144
*480 FILLER_17_15
*481 FILLER_17_156
*482 FILLER_17_169
*483 FILLER_17_181
*484 FILLER_17_193
*485 FILLER_17_205
*486 FILLER_17_217
*487 FILLER_17_223
*488 FILLER_17_225
*489 FILLER_17_237
*490 FILLER_17_249
*491 FILLER_17_261
*492 FILLER_17_27
*493 FILLER_17_273
*494 FILLER_17_279
*495 FILLER_17_281
*496 FILLER_17_293
*497 FILLER_17_3
*498 FILLER_17_39
*499 FILLER_17_51
*500 FILLER_17_55
*501 FILLER_17_57
*502 FILLER_17_69
*503 FILLER_17_81
*504 FILLER_17_93
*505 FILLER_18_117
*506 FILLER_18_125
*507 FILLER_18_137
*508 FILLER_18_141
*509 FILLER_18_15
*510 FILLER_18_157
*511 FILLER_18_169
*512 FILLER_18_181
*513 FILLER_18_193
*514 FILLER_18_197
*515 FILLER_18_209
*516 FILLER_18_221
*517 FILLER_18_233
*518 FILLER_18_245
*519 FILLER_18_251
*520 FILLER_18_253
*521 FILLER_18_265
*522 FILLER_18_27
*523 FILLER_18_277
*524 FILLER_18_289
*525 FILLER_18_29
*526 FILLER_18_297
*527 FILLER_18_3
*528 FILLER_18_41
*529 FILLER_18_53
*530 FILLER_18_65
*531 FILLER_18_77
*532 FILLER_18_83
*533 FILLER_18_85
*534 FILLER_19_105
*535 FILLER_19_111
*536 FILLER_19_113
*537 FILLER_19_119
*538 FILLER_19_123
*539 FILLER_19_147
*540 FILLER_19_15
*541 FILLER_19_159
*542 FILLER_19_167
*543 FILLER_19_169
*544 FILLER_19_181
*545 FILLER_19_193
*546 FILLER_19_205
*547 FILLER_19_217
*548 FILLER_19_223
*549 FILLER_19_225
*550 FILLER_19_237
*551 FILLER_19_249
*552 FILLER_19_261
*553 FILLER_19_27
*554 FILLER_19_273
*555 FILLER_19_279
*556 FILLER_19_281
*557 FILLER_19_293
*558 FILLER_19_3
*559 FILLER_19_39
*560 FILLER_19_51
*561 FILLER_19_55
*562 FILLER_19_57
*563 FILLER_19_69
*564 FILLER_19_81
*565 FILLER_19_93
*566 FILLER_1_108
*567 FILLER_1_113
*568 FILLER_1_119
*569 FILLER_1_142
*570 FILLER_1_15
*571 FILLER_1_154
*572 FILLER_1_166
*573 FILLER_1_169
*574 FILLER_1_181
*575 FILLER_1_193
*576 FILLER_1_205
*577 FILLER_1_217
*578 FILLER_1_223
*579 FILLER_1_225
*580 FILLER_1_237
*581 FILLER_1_249
*582 FILLER_1_261
*583 FILLER_1_273
*584 FILLER_1_279
*585 FILLER_1_281
*586 FILLER_1_293
*587 FILLER_1_3
*588 FILLER_1_36
*589 FILLER_1_48
*590 FILLER_1_57
*591 FILLER_1_69
*592 FILLER_1_96
*593 FILLER_20_111
*594 FILLER_20_115
*595 FILLER_20_13
*596 FILLER_20_136
*597 FILLER_20_145
*598 FILLER_20_157
*599 FILLER_20_169
*600 FILLER_20_181
*601 FILLER_20_193
*602 FILLER_20_197
*603 FILLER_20_209
*604 FILLER_20_221
*605 FILLER_20_233
*606 FILLER_20_245
*607 FILLER_20_25
*608 FILLER_20_251
*609 FILLER_20_253
*610 FILLER_20_265
*611 FILLER_20_277
*612 FILLER_20_289
*613 FILLER_20_29
*614 FILLER_20_297
*615 FILLER_20_41
*616 FILLER_20_53
*617 FILLER_20_65
*618 FILLER_20_76
*619 FILLER_20_85
*620 FILLER_20_97
*621 FILLER_21_105
*622 FILLER_21_11
*623 FILLER_21_111
*624 FILLER_21_116
*625 FILLER_21_128
*626 FILLER_21_141
*627 FILLER_21_153
*628 FILLER_21_16
*629 FILLER_21_165
*630 FILLER_21_169
*631 FILLER_21_181
*632 FILLER_21_193
*633 FILLER_21_205
*634 FILLER_21_217
*635 FILLER_21_223
*636 FILLER_21_225
*637 FILLER_21_237
*638 FILLER_21_249
*639 FILLER_21_261
*640 FILLER_21_273
*641 FILLER_21_279
*642 FILLER_21_28
*643 FILLER_21_281
*644 FILLER_21_293
*645 FILLER_21_3
*646 FILLER_21_40
*647 FILLER_21_52
*648 FILLER_21_57
*649 FILLER_21_65
*650 FILLER_21_76
*651 FILLER_21_84
*652 FILLER_22_122
*653 FILLER_22_134
*654 FILLER_22_148
*655 FILLER_22_15
*656 FILLER_22_160
*657 FILLER_22_172
*658 FILLER_22_184
*659 FILLER_22_197
*660 FILLER_22_209
*661 FILLER_22_221
*662 FILLER_22_233
*663 FILLER_22_245
*664 FILLER_22_251
*665 FILLER_22_253
*666 FILLER_22_265
*667 FILLER_22_27
*668 FILLER_22_277
*669 FILLER_22_289
*670 FILLER_22_29
*671 FILLER_22_297
*672 FILLER_22_3
*673 FILLER_22_41
*674 FILLER_22_53
*675 FILLER_22_59
*676 FILLER_22_63
*677 FILLER_22_75
*678 FILLER_22_83
*679 FILLER_22_94
*680 FILLER_23_105
*681 FILLER_23_111
*682 FILLER_23_113
*683 FILLER_23_121
*684 FILLER_23_144
*685 FILLER_23_15
*686 FILLER_23_156
*687 FILLER_23_169
*688 FILLER_23_181
*689 FILLER_23_193
*690 FILLER_23_205
*691 FILLER_23_217
*692 FILLER_23_223
*693 FILLER_23_225
*694 FILLER_23_237
*695 FILLER_23_249
*696 FILLER_23_261
*697 FILLER_23_27
*698 FILLER_23_273
*699 FILLER_23_279
*700 FILLER_23_281
*701 FILLER_23_293
*702 FILLER_23_3
*703 FILLER_23_35
*704 FILLER_23_47
*705 FILLER_23_55
*706 FILLER_23_57
*707 FILLER_23_64
*708 FILLER_23_76
*709 FILLER_23_80
*710 FILLER_23_87
*711 FILLER_23_94
*712 FILLER_24_102
*713 FILLER_24_114
*714 FILLER_24_13
*715 FILLER_24_135
*716 FILLER_24_139
*717 FILLER_24_141
*718 FILLER_24_153
*719 FILLER_24_165
*720 FILLER_24_177
*721 FILLER_24_189
*722 FILLER_24_195
*723 FILLER_24_197
*724 FILLER_24_209
*725 FILLER_24_221
*726 FILLER_24_233
*727 FILLER_24_245
*728 FILLER_24_25
*729 FILLER_24_251
*730 FILLER_24_253
*731 FILLER_24_265
*732 FILLER_24_277
*733 FILLER_24_289
*734 FILLER_24_29
*735 FILLER_24_297
*736 FILLER_24_41
*737 FILLER_24_49
*738 FILLER_24_54
*739 FILLER_24_61
*740 FILLER_24_72
*741 FILLER_24_79
*742 FILLER_24_83
*743 FILLER_24_85
*744 FILLER_24_94
*745 FILLER_25_107
*746 FILLER_25_111
*747 FILLER_25_113
*748 FILLER_25_147
*749 FILLER_25_15
*750 FILLER_25_159
*751 FILLER_25_167
*752 FILLER_25_169
*753 FILLER_25_181
*754 FILLER_25_193
*755 FILLER_25_205
*756 FILLER_25_217
*757 FILLER_25_223
*758 FILLER_25_225
*759 FILLER_25_237
*760 FILLER_25_249
*761 FILLER_25_261
*762 FILLER_25_27
*763 FILLER_25_273
*764 FILLER_25_279
*765 FILLER_25_281
*766 FILLER_25_293
*767 FILLER_25_3
*768 FILLER_25_39
*769 FILLER_25_51
*770 FILLER_25_55
*771 FILLER_25_57
*772 FILLER_25_67
*773 FILLER_25_79
*774 FILLER_25_91
*775 FILLER_25_95
*776 FILLER_26_101
*777 FILLER_26_113
*778 FILLER_26_128
*779 FILLER_26_148
*780 FILLER_26_15
*781 FILLER_26_160
*782 FILLER_26_172
*783 FILLER_26_184
*784 FILLER_26_197
*785 FILLER_26_209
*786 FILLER_26_221
*787 FILLER_26_233
*788 FILLER_26_245
*789 FILLER_26_251
*790 FILLER_26_253
*791 FILLER_26_265
*792 FILLER_26_27
*793 FILLER_26_277
*794 FILLER_26_289
*795 FILLER_26_29
*796 FILLER_26_297
*797 FILLER_26_3
*798 FILLER_26_38
*799 FILLER_26_46
*800 FILLER_26_52
*801 FILLER_26_59
*802 FILLER_26_66
*803 FILLER_26_78
*804 FILLER_26_85
*805 FILLER_26_93
*806 FILLER_27_108
*807 FILLER_27_113
*808 FILLER_27_121
*809 FILLER_27_125
*810 FILLER_27_13
*811 FILLER_27_133
*812 FILLER_27_145
*813 FILLER_27_157
*814 FILLER_27_165
*815 FILLER_27_169
*816 FILLER_27_181
*817 FILLER_27_193
*818 FILLER_27_205
*819 FILLER_27_217
*820 FILLER_27_223
*821 FILLER_27_225
*822 FILLER_27_237
*823 FILLER_27_249
*824 FILLER_27_25
*825 FILLER_27_261
*826 FILLER_27_273
*827 FILLER_27_279
*828 FILLER_27_281
*829 FILLER_27_293
*830 FILLER_27_37
*831 FILLER_27_49
*832 FILLER_27_55
*833 FILLER_27_60
*834 FILLER_27_72
*835 FILLER_27_80
*836 FILLER_27_89
*837 FILLER_27_97
*838 FILLER_28_105
*839 FILLER_28_117
*840 FILLER_28_129
*841 FILLER_28_137
*842 FILLER_28_141
*843 FILLER_28_15
*844 FILLER_28_153
*845 FILLER_28_165
*846 FILLER_28_177
*847 FILLER_28_189
*848 FILLER_28_195
*849 FILLER_28_197
*850 FILLER_28_209
*851 FILLER_28_221
*852 FILLER_28_233
*853 FILLER_28_245
*854 FILLER_28_251
*855 FILLER_28_253
*856 FILLER_28_265
*857 FILLER_28_27
*858 FILLER_28_277
*859 FILLER_28_289
*860 FILLER_28_29
*861 FILLER_28_297
*862 FILLER_28_3
*863 FILLER_28_41
*864 FILLER_28_53
*865 FILLER_28_62
*866 FILLER_28_70
*867 FILLER_28_80
*868 FILLER_28_85
*869 FILLER_28_98
*870 FILLER_29_104
*871 FILLER_29_113
*872 FILLER_29_125
*873 FILLER_29_137
*874 FILLER_29_149
*875 FILLER_29_15
*876 FILLER_29_161
*877 FILLER_29_167
*878 FILLER_29_169
*879 FILLER_29_181
*880 FILLER_29_193
*881 FILLER_29_205
*882 FILLER_29_217
*883 FILLER_29_223
*884 FILLER_29_225
*885 FILLER_29_237
*886 FILLER_29_249
*887 FILLER_29_261
*888 FILLER_29_27
*889 FILLER_29_273
*890 FILLER_29_279
*891 FILLER_29_281
*892 FILLER_29_293
*893 FILLER_29_3
*894 FILLER_29_39
*895 FILLER_29_47
*896 FILLER_29_52
*897 FILLER_29_60
*898 FILLER_29_67
*899 FILLER_29_79
*900 FILLER_2_106
*901 FILLER_2_136
*902 FILLER_2_141
*903 FILLER_2_153
*904 FILLER_2_165
*905 FILLER_2_177
*906 FILLER_2_189
*907 FILLER_2_195
*908 FILLER_2_197
*909 FILLER_2_209
*910 FILLER_2_221
*911 FILLER_2_233
*912 FILLER_2_24
*913 FILLER_2_245
*914 FILLER_2_251
*915 FILLER_2_253
*916 FILLER_2_265
*917 FILLER_2_277
*918 FILLER_2_289
*919 FILLER_2_29
*920 FILLER_2_297
*921 FILLER_2_3
*922 FILLER_2_37
*923 FILLER_2_56
*924 FILLER_2_7
*925 FILLER_2_80
*926 FILLER_30_106
*927 FILLER_30_127
*928 FILLER_30_139
*929 FILLER_30_141
*930 FILLER_30_15
*931 FILLER_30_153
*932 FILLER_30_165
*933 FILLER_30_177
*934 FILLER_30_189
*935 FILLER_30_195
*936 FILLER_30_197
*937 FILLER_30_209
*938 FILLER_30_221
*939 FILLER_30_233
*940 FILLER_30_245
*941 FILLER_30_251
*942 FILLER_30_253
*943 FILLER_30_265
*944 FILLER_30_27
*945 FILLER_30_277
*946 FILLER_30_289
*947 FILLER_30_29
*948 FILLER_30_297
*949 FILLER_30_3
*950 FILLER_30_41
*951 FILLER_30_50
*952 FILLER_30_64
*953 FILLER_30_76
*954 FILLER_30_85
*955 FILLER_30_94
*956 FILLER_31_104
*957 FILLER_31_113
*958 FILLER_31_125
*959 FILLER_31_137
*960 FILLER_31_149
*961 FILLER_31_161
*962 FILLER_31_167
*963 FILLER_31_169
*964 FILLER_31_18
*965 FILLER_31_181
*966 FILLER_31_193
*967 FILLER_31_205
*968 FILLER_31_217
*969 FILLER_31_223
*970 FILLER_31_225
*971 FILLER_31_237
*972 FILLER_31_249
*973 FILLER_31_261
*974 FILLER_31_273
*975 FILLER_31_279
*976 FILLER_31_281
*977 FILLER_31_293
*978 FILLER_31_30
*979 FILLER_31_42
*980 FILLER_31_52
*981 FILLER_31_6
*982 FILLER_31_66
*983 FILLER_31_72
*984 FILLER_31_82
*985 FILLER_32_107
*986 FILLER_32_121
*987 FILLER_32_133
*988 FILLER_32_139
*989 FILLER_32_141
*990 FILLER_32_15
*991 FILLER_32_153
*992 FILLER_32_165
*993 FILLER_32_177
*994 FILLER_32_189
*995 FILLER_32_195
*996 FILLER_32_197
*997 FILLER_32_209
*998 FILLER_32_221
*999 FILLER_32_233
*1000 FILLER_32_245
*1001 FILLER_32_251
*1002 FILLER_32_253
*1003 FILLER_32_265
*1004 FILLER_32_27
*1005 FILLER_32_277
*1006 FILLER_32_289
*1007 FILLER_32_29
*1008 FILLER_32_297
*1009 FILLER_32_3
*1010 FILLER_32_35
*1011 FILLER_32_39
*1012 FILLER_32_46
*1013 FILLER_32_53
*1014 FILLER_32_61
*1015 FILLER_32_78
*1016 FILLER_32_92
*1017 FILLER_32_96
*1018 FILLER_33_106
*1019 FILLER_33_116
*1020 FILLER_33_128
*1021 FILLER_33_140
*1022 FILLER_33_15
*1023 FILLER_33_152
*1024 FILLER_33_164
*1025 FILLER_33_169
*1026 FILLER_33_181
*1027 FILLER_33_193
*1028 FILLER_33_205
*1029 FILLER_33_217
*1030 FILLER_33_223
*1031 FILLER_33_225
*1032 FILLER_33_237
*1033 FILLER_33_249
*1034 FILLER_33_261
*1035 FILLER_33_27
*1036 FILLER_33_273
*1037 FILLER_33_279
*1038 FILLER_33_281
*1039 FILLER_33_293
*1040 FILLER_33_3
*1041 FILLER_33_34
*1042 FILLER_33_41
*1043 FILLER_33_48
*1044 FILLER_33_57
*1045 FILLER_33_69
*1046 FILLER_33_77
*1047 FILLER_33_85
*1048 FILLER_34_106
*1049 FILLER_34_113
*1050 FILLER_34_125
*1051 FILLER_34_137
*1052 FILLER_34_141
*1053 FILLER_34_15
*1054 FILLER_34_153
*1055 FILLER_34_165
*1056 FILLER_34_177
*1057 FILLER_34_189
*1058 FILLER_34_195
*1059 FILLER_34_197
*1060 FILLER_34_209
*1061 FILLER_34_221
*1062 FILLER_34_233
*1063 FILLER_34_245
*1064 FILLER_34_251
*1065 FILLER_34_253
*1066 FILLER_34_265
*1067 FILLER_34_27
*1068 FILLER_34_277
*1069 FILLER_34_289
*1070 FILLER_34_297
*1071 FILLER_34_3
*1072 FILLER_34_38
*1073 FILLER_34_44
*1074 FILLER_34_54
*1075 FILLER_34_66
*1076 FILLER_34_71
*1077 FILLER_34_83
*1078 FILLER_34_85
*1079 FILLER_34_98
*1080 FILLER_35_110
*1081 FILLER_35_113
*1082 FILLER_35_12
*1083 FILLER_35_125
*1084 FILLER_35_137
*1085 FILLER_35_149
*1086 FILLER_35_161
*1087 FILLER_35_167
*1088 FILLER_35_169
*1089 FILLER_35_17
*1090 FILLER_35_181
*1091 FILLER_35_193
*1092 FILLER_35_205
*1093 FILLER_35_217
*1094 FILLER_35_223
*1095 FILLER_35_225
*1096 FILLER_35_237
*1097 FILLER_35_249
*1098 FILLER_35_25
*1099 FILLER_35_261
*1100 FILLER_35_273
*1101 FILLER_35_279
*1102 FILLER_35_281
*1103 FILLER_35_293
*1104 FILLER_35_31
*1105 FILLER_35_38
*1106 FILLER_35_42
*1107 FILLER_35_46
*1108 FILLER_35_54
*1109 FILLER_35_6
*1110 FILLER_35_66
*1111 FILLER_35_75
*1112 FILLER_35_87
*1113 FILLER_35_98
*1114 FILLER_36_11
*1115 FILLER_36_119
*1116 FILLER_36_131
*1117 FILLER_36_139
*1118 FILLER_36_141
*1119 FILLER_36_153
*1120 FILLER_36_165
*1121 FILLER_36_17
*1122 FILLER_36_177
*1123 FILLER_36_189
*1124 FILLER_36_195
*1125 FILLER_36_197
*1126 FILLER_36_209
*1127 FILLER_36_221
*1128 FILLER_36_233
*1129 FILLER_36_245
*1130 FILLER_36_25
*1131 FILLER_36_251
*1132 FILLER_36_253
*1133 FILLER_36_265
*1134 FILLER_36_277
*1135 FILLER_36_289
*1136 FILLER_36_29
*1137 FILLER_36_297
*1138 FILLER_36_3
*1139 FILLER_36_35
*1140 FILLER_36_39
*1141 FILLER_36_53
*1142 FILLER_36_80
*1143 FILLER_36_85
*1144 FILLER_36_97
*1145 FILLER_37_105
*1146 FILLER_37_11
*1147 FILLER_37_111
*1148 FILLER_37_134
*1149 FILLER_37_146
*1150 FILLER_37_158
*1151 FILLER_37_16
*1152 FILLER_37_166
*1153 FILLER_37_169
*1154 FILLER_37_181
*1155 FILLER_37_193
*1156 FILLER_37_205
*1157 FILLER_37_217
*1158 FILLER_37_223
*1159 FILLER_37_225
*1160 FILLER_37_237
*1161 FILLER_37_249
*1162 FILLER_37_261
*1163 FILLER_37_273
*1164 FILLER_37_279
*1165 FILLER_37_28
*1166 FILLER_37_281
*1167 FILLER_37_293
*1168 FILLER_37_3
*1169 FILLER_37_39
*1170 FILLER_37_51
*1171 FILLER_37_55
*1172 FILLER_37_60
*1173 FILLER_37_77
*1174 FILLER_37_83
*1175 FILLER_37_93
*1176 FILLER_38_11
*1177 FILLER_38_117
*1178 FILLER_38_129
*1179 FILLER_38_137
*1180 FILLER_38_141
*1181 FILLER_38_153
*1182 FILLER_38_165
*1183 FILLER_38_17
*1184 FILLER_38_177
*1185 FILLER_38_189
*1186 FILLER_38_195
*1187 FILLER_38_197
*1188 FILLER_38_209
*1189 FILLER_38_221
*1190 FILLER_38_233
*1191 FILLER_38_245
*1192 FILLER_38_25
*1193 FILLER_38_251
*1194 FILLER_38_253
*1195 FILLER_38_265
*1196 FILLER_38_277
*1197 FILLER_38_289
*1198 FILLER_38_297
*1199 FILLER_38_3
*1200 FILLER_38_38
*1201 FILLER_38_51
*1202 FILLER_38_63
*1203 FILLER_38_80
*1204 FILLER_38_85
*1205 FILLER_38_93
*1206 FILLER_39_110
*1207 FILLER_39_113
*1208 FILLER_39_125
*1209 FILLER_39_137
*1210 FILLER_39_149
*1211 FILLER_39_161
*1212 FILLER_39_167
*1213 FILLER_39_169
*1214 FILLER_39_17
*1215 FILLER_39_181
*1216 FILLER_39_193
*1217 FILLER_39_205
*1218 FILLER_39_217
*1219 FILLER_39_223
*1220 FILLER_39_225
*1221 FILLER_39_237
*1222 FILLER_39_249
*1223 FILLER_39_261
*1224 FILLER_39_273
*1225 FILLER_39_279
*1226 FILLER_39_281
*1227 FILLER_39_29
*1228 FILLER_39_293
*1229 FILLER_39_39
*1230 FILLER_39_52
*1231 FILLER_39_6
*1232 FILLER_39_66
*1233 FILLER_39_74
*1234 FILLER_39_85
*1235 FILLER_39_98
*1236 FILLER_3_108
*1237 FILLER_3_113
*1238 FILLER_3_139
*1239 FILLER_3_15
*1240 FILLER_3_151
*1241 FILLER_3_163
*1242 FILLER_3_167
*1243 FILLER_3_169
*1244 FILLER_3_181
*1245 FILLER_3_193
*1246 FILLER_3_205
*1247 FILLER_3_217
*1248 FILLER_3_223
*1249 FILLER_3_225
*1250 FILLER_3_237
*1251 FILLER_3_249
*1252 FILLER_3_261
*1253 FILLER_3_273
*1254 FILLER_3_279
*1255 FILLER_3_281
*1256 FILLER_3_293
*1257 FILLER_3_3
*1258 FILLER_3_32
*1259 FILLER_3_52
*1260 FILLER_3_65
*1261 FILLER_3_73
*1262 FILLER_3_96
*1263 FILLER_40_11
*1264 FILLER_40_110
*1265 FILLER_40_122
*1266 FILLER_40_134
*1267 FILLER_40_141
*1268 FILLER_40_153
*1269 FILLER_40_165
*1270 FILLER_40_177
*1271 FILLER_40_189
*1272 FILLER_40_195
*1273 FILLER_40_197
*1274 FILLER_40_209
*1275 FILLER_40_221
*1276 FILLER_40_23
*1277 FILLER_40_233
*1278 FILLER_40_245
*1279 FILLER_40_251
*1280 FILLER_40_253
*1281 FILLER_40_265
*1282 FILLER_40_27
*1283 FILLER_40_277
*1284 FILLER_40_289
*1285 FILLER_40_29
*1286 FILLER_40_297
*1287 FILLER_40_3
*1288 FILLER_40_33
*1289 FILLER_40_44
*1290 FILLER_40_55
*1291 FILLER_40_80
*1292 FILLER_40_85
*1293 FILLER_40_98
*1294 FILLER_41_108
*1295 FILLER_41_11
*1296 FILLER_41_113
*1297 FILLER_41_125
*1298 FILLER_41_137
*1299 FILLER_41_149
*1300 FILLER_41_161
*1301 FILLER_41_167
*1302 FILLER_41_169
*1303 FILLER_41_17
*1304 FILLER_41_181
*1305 FILLER_41_193
*1306 FILLER_41_205
*1307 FILLER_41_217
*1308 FILLER_41_223
*1309 FILLER_41_225
*1310 FILLER_41_237
*1311 FILLER_41_24
*1312 FILLER_41_249
*1313 FILLER_41_261
*1314 FILLER_41_273
*1315 FILLER_41_279
*1316 FILLER_41_281
*1317 FILLER_41_293
*1318 FILLER_41_3
*1319 FILLER_41_36
*1320 FILLER_41_48
*1321 FILLER_41_66
*1322 FILLER_41_78
*1323 FILLER_41_86
*1324 FILLER_41_96
*1325 FILLER_42_106
*1326 FILLER_42_118
*1327 FILLER_42_130
*1328 FILLER_42_138
*1329 FILLER_42_141
*1330 FILLER_42_15
*1331 FILLER_42_153
*1332 FILLER_42_165
*1333 FILLER_42_177
*1334 FILLER_42_189
*1335 FILLER_42_195
*1336 FILLER_42_197
*1337 FILLER_42_209
*1338 FILLER_42_221
*1339 FILLER_42_233
*1340 FILLER_42_245
*1341 FILLER_42_251
*1342 FILLER_42_253
*1343 FILLER_42_265
*1344 FILLER_42_27
*1345 FILLER_42_277
*1346 FILLER_42_289
*1347 FILLER_42_29
*1348 FILLER_42_297
*1349 FILLER_42_3
*1350 FILLER_42_50
*1351 FILLER_42_63
*1352 FILLER_42_75
*1353 FILLER_42_83
*1354 FILLER_42_94
*1355 FILLER_43_105
*1356 FILLER_43_111
*1357 FILLER_43_113
*1358 FILLER_43_125
*1359 FILLER_43_137
*1360 FILLER_43_149
*1361 FILLER_43_15
*1362 FILLER_43_161
*1363 FILLER_43_167
*1364 FILLER_43_169
*1365 FILLER_43_181
*1366 FILLER_43_193
*1367 FILLER_43_205
*1368 FILLER_43_217
*1369 FILLER_43_223
*1370 FILLER_43_225
*1371 FILLER_43_237
*1372 FILLER_43_249
*1373 FILLER_43_261
*1374 FILLER_43_27
*1375 FILLER_43_273
*1376 FILLER_43_279
*1377 FILLER_43_281
*1378 FILLER_43_293
*1379 FILLER_43_3
*1380 FILLER_43_39
*1381 FILLER_43_51
*1382 FILLER_43_55
*1383 FILLER_43_57
*1384 FILLER_43_69
*1385 FILLER_43_81
*1386 FILLER_43_93
*1387 FILLER_44_109
*1388 FILLER_44_121
*1389 FILLER_44_133
*1390 FILLER_44_139
*1391 FILLER_44_141
*1392 FILLER_44_15
*1393 FILLER_44_153
*1394 FILLER_44_165
*1395 FILLER_44_177
*1396 FILLER_44_189
*1397 FILLER_44_195
*1398 FILLER_44_197
*1399 FILLER_44_209
*1400 FILLER_44_221
*1401 FILLER_44_233
*1402 FILLER_44_245
*1403 FILLER_44_251
*1404 FILLER_44_253
*1405 FILLER_44_265
*1406 FILLER_44_27
*1407 FILLER_44_277
*1408 FILLER_44_289
*1409 FILLER_44_29
*1410 FILLER_44_297
*1411 FILLER_44_3
*1412 FILLER_44_41
*1413 FILLER_44_53
*1414 FILLER_44_61
*1415 FILLER_44_71
*1416 FILLER_44_83
*1417 FILLER_44_85
*1418 FILLER_44_97
*1419 FILLER_45_109
*1420 FILLER_45_113
*1421 FILLER_45_125
*1422 FILLER_45_137
*1423 FILLER_45_149
*1424 FILLER_45_15
*1425 FILLER_45_161
*1426 FILLER_45_167
*1427 FILLER_45_169
*1428 FILLER_45_181
*1429 FILLER_45_193
*1430 FILLER_45_205
*1431 FILLER_45_217
*1432 FILLER_45_223
*1433 FILLER_45_225
*1434 FILLER_45_237
*1435 FILLER_45_249
*1436 FILLER_45_261
*1437 FILLER_45_27
*1438 FILLER_45_273
*1439 FILLER_45_279
*1440 FILLER_45_281
*1441 FILLER_45_293
*1442 FILLER_45_3
*1443 FILLER_45_39
*1444 FILLER_45_51
*1445 FILLER_45_55
*1446 FILLER_45_57
*1447 FILLER_45_69
*1448 FILLER_45_81
*1449 FILLER_45_87
*1450 FILLER_45_97
*1451 FILLER_46_109
*1452 FILLER_46_121
*1453 FILLER_46_133
*1454 FILLER_46_139
*1455 FILLER_46_141
*1456 FILLER_46_15
*1457 FILLER_46_153
*1458 FILLER_46_165
*1459 FILLER_46_177
*1460 FILLER_46_189
*1461 FILLER_46_195
*1462 FILLER_46_197
*1463 FILLER_46_209
*1464 FILLER_46_221
*1465 FILLER_46_233
*1466 FILLER_46_245
*1467 FILLER_46_251
*1468 FILLER_46_253
*1469 FILLER_46_265
*1470 FILLER_46_27
*1471 FILLER_46_277
*1472 FILLER_46_289
*1473 FILLER_46_29
*1474 FILLER_46_297
*1475 FILLER_46_3
*1476 FILLER_46_41
*1477 FILLER_46_53
*1478 FILLER_46_65
*1479 FILLER_46_77
*1480 FILLER_46_83
*1481 FILLER_46_85
*1482 FILLER_46_97
*1483 FILLER_47_102
*1484 FILLER_47_110
*1485 FILLER_47_113
*1486 FILLER_47_125
*1487 FILLER_47_137
*1488 FILLER_47_149
*1489 FILLER_47_15
*1490 FILLER_47_161
*1491 FILLER_47_167
*1492 FILLER_47_169
*1493 FILLER_47_181
*1494 FILLER_47_193
*1495 FILLER_47_205
*1496 FILLER_47_217
*1497 FILLER_47_223
*1498 FILLER_47_225
*1499 FILLER_47_23
*1500 FILLER_47_237
*1501 FILLER_47_249
*1502 FILLER_47_261
*1503 FILLER_47_273
*1504 FILLER_47_279
*1505 FILLER_47_281
*1506 FILLER_47_293
*1507 FILLER_47_3
*1508 FILLER_47_35
*1509 FILLER_47_47
*1510 FILLER_47_55
*1511 FILLER_47_66
*1512 FILLER_47_78
*1513 FILLER_47_90
*1514 FILLER_48_109
*1515 FILLER_48_121
*1516 FILLER_48_133
*1517 FILLER_48_139
*1518 FILLER_48_141
*1519 FILLER_48_15
*1520 FILLER_48_153
*1521 FILLER_48_165
*1522 FILLER_48_177
*1523 FILLER_48_189
*1524 FILLER_48_195
*1525 FILLER_48_197
*1526 FILLER_48_209
*1527 FILLER_48_221
*1528 FILLER_48_233
*1529 FILLER_48_245
*1530 FILLER_48_251
*1531 FILLER_48_253
*1532 FILLER_48_265
*1533 FILLER_48_27
*1534 FILLER_48_277
*1535 FILLER_48_289
*1536 FILLER_48_29
*1537 FILLER_48_297
*1538 FILLER_48_3
*1539 FILLER_48_41
*1540 FILLER_48_53
*1541 FILLER_48_77
*1542 FILLER_48_83
*1543 FILLER_48_85
*1544 FILLER_48_97
*1545 FILLER_49_105
*1546 FILLER_49_111
*1547 FILLER_49_113
*1548 FILLER_49_125
*1549 FILLER_49_137
*1550 FILLER_49_149
*1551 FILLER_49_15
*1552 FILLER_49_161
*1553 FILLER_49_167
*1554 FILLER_49_169
*1555 FILLER_49_181
*1556 FILLER_49_193
*1557 FILLER_49_205
*1558 FILLER_49_217
*1559 FILLER_49_223
*1560 FILLER_49_225
*1561 FILLER_49_237
*1562 FILLER_49_249
*1563 FILLER_49_261
*1564 FILLER_49_27
*1565 FILLER_49_273
*1566 FILLER_49_279
*1567 FILLER_49_281
*1568 FILLER_49_293
*1569 FILLER_49_3
*1570 FILLER_49_39
*1571 FILLER_49_51
*1572 FILLER_49_55
*1573 FILLER_49_57
*1574 FILLER_49_69
*1575 FILLER_49_81
*1576 FILLER_49_93
*1577 FILLER_4_105
*1578 FILLER_4_117
*1579 FILLER_4_129
*1580 FILLER_4_137
*1581 FILLER_4_141
*1582 FILLER_4_153
*1583 FILLER_4_165
*1584 FILLER_4_177
*1585 FILLER_4_189
*1586 FILLER_4_195
*1587 FILLER_4_197
*1588 FILLER_4_209
*1589 FILLER_4_221
*1590 FILLER_4_233
*1591 FILLER_4_24
*1592 FILLER_4_245
*1593 FILLER_4_251
*1594 FILLER_4_253
*1595 FILLER_4_265
*1596 FILLER_4_277
*1597 FILLER_4_289
*1598 FILLER_4_29
*1599 FILLER_4_297
*1600 FILLER_4_3
*1601 FILLER_4_51
*1602 FILLER_4_7
*1603 FILLER_4_75
*1604 FILLER_4_83
*1605 FILLER_50_109