*SPEF "ieee 1481-1999"
*DESIGN "klei22_ra"
*DATE "11:11:11 Fri 11 11, 1111"
*VENDOR "OpenRCX"
*PROGRAM "Parallel Extraction"
*VERSION "1.0"
*DESIGN_FLOW "NAME_SCOPE LOCAL" "PIN_CAP NONE"
*DIVIDER /
*DELIMITER :
*BUS_DELIMITER []
*T_UNIT 1 NS
*C_UNIT 1 PF
*R_UNIT 1 OHM
*L_UNIT 1 HENRY

*NAME_MAP
*1 io_in[0]
*2 io_in[1]
*3 io_in[2]
*4 io_in[3]
*5 io_in[4]
*6 io_in[5]
*7 io_in[6]
*8 io_in[7]
*9 io_out[0]
*10 io_out[1]
*11 io_out[2]
*12 io_out[3]
*13 io_out[4]
*14 net9
*15 net10
*16 net11
*19 _000_
*20 _001_
*21 _002_
*22 _003_
*23 _004_
*24 _005_
*25 _006_
*26 _007_
*27 _008_
*28 _009_
*29 _010_
*30 _011_
*31 _012_
*32 _013_
*33 _014_
*34 _015_
*35 _016_
*36 _017_
*37 _018_
*38 _019_
*39 _020_
*40 _021_
*41 _022_
*42 _023_
*43 _024_
*44 _025_
*45 _026_
*46 _027_
*47 _028_
*48 _029_
*49 _030_
*50 _031_
*51 _032_
*52 _033_
*53 _034_
*54 _035_
*55 _036_
*56 _037_
*57 _038_
*58 _039_
*59 _040_
*60 _041_
*61 _042_
*62 _043_
*63 _044_
*64 _045_
*65 _046_
*66 _047_
*67 _048_
*68 _049_
*69 _050_
*70 _051_
*71 _052_
*72 _053_
*73 _054_
*74 _055_
*75 _056_
*76 _057_
*77 _058_
*78 _059_
*79 _060_
*80 _061_
*81 _062_
*82 _063_
*83 _064_
*84 _065_
*85 _066_
*86 _067_
*87 _068_
*88 _069_
*89 _070_
*90 _071_
*91 _072_
*92 _073_
*93 _074_
*94 _075_
*95 _076_
*96 _077_
*97 _078_
*98 _079_
*99 _080_
*100 _081_
*101 _082_
*102 _083_
*103 _084_
*104 _085_
*105 _086_
*106 _087_
*107 _088_
*108 _089_
*109 _090_
*110 _091_
*111 _092_
*112 _093_
*113 _094_
*114 _095_
*115 _096_
*116 _097_
*117 _098_
*118 _099_
*119 _100_
*120 _101_
*121 _102_
*122 _103_
*123 _104_
*124 _105_
*125 _106_
*126 _107_
*127 _108_
*128 _109_
*129 _110_
*130 _111_
*131 _112_
*132 _113_
*133 _114_
*134 _115_
*135 _116_
*136 _117_
*137 _118_
*138 _119_
*139 _120_
*140 _121_
*141 _122_
*142 _123_
*143 _124_
*144 _125_
*145 _126_
*146 _127_
*147 _128_
*148 _129_
*149 _130_
*150 _131_
*151 _132_
*152 _133_
*153 _134_
*154 _135_
*155 _136_
*156 _137_
*157 _138_
*158 _139_
*159 _140_
*160 _141_
*161 _142_
*162 _143_
*163 _144_
*164 _145_
*165 _146_
*166 _147_
*167 _148_
*168 _149_
*169 _150_
*170 _151_
*171 _152_
*172 _153_
*173 _154_
*174 _155_
*175 _156_
*176 _157_
*177 _158_
*178 _159_
*179 _160_
*180 _161_
*181 _162_
*182 _163_
*183 _164_
*184 _165_
*185 _166_
*186 _167_
*187 _168_
*188 _169_
*189 _170_
*190 _171_
*191 _172_
*192 _173_
*193 _174_
*194 _175_
*195 _176_
*196 _177_
*197 _178_
*198 _179_
*199 _180_
*200 _181_
*201 _182_
*202 _183_
*203 _184_
*204 _185_
*205 _186_
*206 _187_
*207 _188_
*208 _189_
*209 _190_
*210 _191_
*211 _192_
*212 _193_
*213 _194_
*214 _195_
*215 _196_
*216 _197_
*217 _198_
*218 _199_
*219 _200_
*220 _201_
*221 _202_
*222 _203_
*223 _204_
*224 _205_
*225 _206_
*226 _207_
*227 _208_
*228 _209_
*229 _210_
*230 _211_
*231 clknet_0_io_in[0]
*232 clknet_2_0__leaf_io_in[0]
*233 clknet_2_1__leaf_io_in[0]
*234 clknet_2_2__leaf_io_in[0]
*235 clknet_2_3__leaf_io_in[0]
*236 net1
*237 net2
*238 net3
*239 net4
*240 net5
*241 net6
*242 net7
*243 net8
*244 ra_1\.ra_sum\[0\]
*245 ra_1\.ra_sum\[1\]
*246 ra_1\.ra_sum\[2\]
*247 ra_1\.ra_sum\[3\]
*248 ra_1\.ra_sum\[4\]
*249 ra_1\.ra_sum\[5\]
*250 ra_1\.ra_sum\[6\]
*251 ra_1\.ra_sum\[7\]
*252 srl_1\.data_clk_previous
*253 srl_1\.data_clk_two_previous
*254 srl_1\.o_taps\[0\]
*255 srl_1\.o_taps\[10\]
*256 srl_1\.o_taps\[11\]
*257 srl_1\.o_taps\[12\]
*258 srl_1\.o_taps\[13\]
*259 srl_1\.o_taps\[14\]
*260 srl_1\.o_taps\[15\]
*261 srl_1\.o_taps\[16\]
*262 srl_1\.o_taps\[17\]
*263 srl_1\.o_taps\[18\]
*264 srl_1\.o_taps\[19\]
*265 srl_1\.o_taps\[1\]
*266 srl_1\.o_taps\[20\]
*267 srl_1\.o_taps\[21\]
*268 srl_1\.o_taps\[22\]
*269 srl_1\.o_taps\[23\]
*270 srl_1\.o_taps\[24\]
*271 srl_1\.o_taps\[25\]
*272 srl_1\.o_taps\[26\]
*273 srl_1\.o_taps\[27\]
*274 srl_1\.o_taps\[28\]
*275 srl_1\.o_taps\[29\]
*276 srl_1\.o_taps\[2\]
*277 srl_1\.o_taps\[30\]
*278 srl_1\.o_taps\[31\]
*279 srl_1\.o_taps\[32\]
*280 srl_1\.o_taps\[33\]
*281 srl_1\.o_taps\[34\]
*282 srl_1\.o_taps\[35\]
*283 srl_1\.o_taps\[36\]
*284 srl_1\.o_taps\[37\]
*285 srl_1\.o_taps\[38\]
*286 srl_1\.o_taps\[39\]
*287 srl_1\.o_taps\[3\]
*288 srl_1\.o_taps\[40\]
*289 srl_1\.o_taps\[41\]
*290 srl_1\.o_taps\[42\]
*291 srl_1\.o_taps\[43\]
*292 srl_1\.o_taps\[44\]
*293 srl_1\.o_taps\[4\]
*294 srl_1\.o_taps\[5\]
*295 srl_1\.o_taps\[6\]
*296 srl_1\.o_taps\[7\]
*297 srl_1\.o_taps\[8\]
*298 srl_1\.o_taps\[9\]
*299 srl_1\.start_calc
*300 ANTENNA_0
*301 ANTENNA_1
*302 ANTENNA_2
*303 FILLER_0_101
*304 FILLER_0_109
*305 FILLER_0_113
*306 FILLER_0_125
*307 FILLER_0_137
*308 FILLER_0_141
*309 FILLER_0_153
*310 FILLER_0_165
*311 FILLER_0_169
*312 FILLER_0_181
*313 FILLER_0_193
*314 FILLER_0_197
*315 FILLER_0_209
*316 FILLER_0_221
*317 FILLER_0_225
*318 FILLER_0_237
*319 FILLER_0_24
*320 FILLER_0_249
*321 FILLER_0_253
*322 FILLER_0_265
*323 FILLER_0_277
*324 FILLER_0_281
*325 FILLER_0_29
*326 FILLER_0_293
*327 FILLER_0_3
*328 FILLER_0_48
*329 FILLER_0_52
*330 FILLER_0_57
*331 FILLER_0_61
*332 FILLER_0_7
*333 FILLER_0_78
*334 FILLER_10_103
*335 FILLER_10_117
*336 FILLER_10_125
*337 FILLER_10_136
*338 FILLER_10_149
*339 FILLER_10_158
*340 FILLER_10_170
*341 FILLER_10_182
*342 FILLER_10_194
*343 FILLER_10_197
*344 FILLER_10_209
*345 FILLER_10_221
*346 FILLER_10_233
*347 FILLER_10_24
*348 FILLER_10_245
*349 FILLER_10_251
*350 FILLER_10_253
*351 FILLER_10_265
*352 FILLER_10_277
*353 FILLER_10_289
*354 FILLER_10_29
*355 FILLER_10_297
*356 FILLER_10_3
*357 FILLER_10_41
*358 FILLER_10_45
*359 FILLER_10_48
*360 FILLER_10_66
*361 FILLER_10_7
*362 FILLER_10_74
*363 FILLER_10_80
*364 FILLER_10_89
*365 FILLER_11_108
*366 FILLER_11_118
*367 FILLER_11_132
*368 FILLER_11_136
*369 FILLER_11_145
*370 FILLER_11_157
*371 FILLER_11_165
*372 FILLER_11_169
*373 FILLER_11_181
*374 FILLER_11_193
*375 FILLER_11_205
*376 FILLER_11_21
*377 FILLER_11_217
*378 FILLER_11_223
*379 FILLER_11_225
*380 FILLER_11_237
*381 FILLER_11_249
*382 FILLER_11_261
*383 FILLER_11_273
*384 FILLER_11_279
*385 FILLER_11_281
*386 FILLER_11_29
*387 FILLER_11_293
*388 FILLER_11_3
*389 FILLER_11_52
*390 FILLER_11_57
*391 FILLER_11_74
*392 FILLER_11_82
*393 FILLER_11_96
*394 FILLER_12_104
*395 FILLER_12_120
*396 FILLER_12_136
*397 FILLER_12_141
*398 FILLER_12_152
*399 FILLER_12_160
*400 FILLER_12_167
*401 FILLER_12_179
*402 FILLER_12_191
*403 FILLER_12_195
*404 FILLER_12_197
*405 FILLER_12_209
*406 FILLER_12_221
*407 FILLER_12_233
*408 FILLER_12_24
*409 FILLER_12_245
*410 FILLER_12_251
*411 FILLER_12_253
*412 FILLER_12_265
*413 FILLER_12_277
*414 FILLER_12_289
*415 FILLER_12_297
*416 FILLER_12_3
*417 FILLER_12_45
*418 FILLER_12_53
*419 FILLER_12_73
*420 FILLER_12_81
*421 FILLER_12_90
*422 FILLER_13_108
*423 FILLER_13_113
*424 FILLER_13_125
*425 FILLER_13_137
*426 FILLER_13_14
*427 FILLER_13_149
*428 FILLER_13_161
*429 FILLER_13_167
*430 FILLER_13_169
*431 FILLER_13_181
*432 FILLER_13_193
*433 FILLER_13_205
*434 FILLER_13_217
*435 FILLER_13_223
*436 FILLER_13_225
*437 FILLER_13_237
*438 FILLER_13_249
*439 FILLER_13_261
*440 FILLER_13_273
*441 FILLER_13_279
*442 FILLER_13_281
*443 FILLER_13_293
*444 FILLER_13_42
*445 FILLER_13_54
*446 FILLER_13_6
*447 FILLER_13_73
*448 FILLER_13_81
*449 FILLER_13_85
*450 FILLER_13_94
*451 FILLER_14_104
*452 FILLER_14_113
*453 FILLER_14_124
*454 FILLER_14_136
*455 FILLER_14_141
*456 FILLER_14_161
*457 FILLER_14_173
*458 FILLER_14_185
*459 FILLER_14_19
*460 FILLER_14_193
*461 FILLER_14_197
*462 FILLER_14_209
*463 FILLER_14_221
*464 FILLER_14_233
*465 FILLER_14_245
*466 FILLER_14_251
*467 FILLER_14_253
*468 FILLER_14_265
*469 FILLER_14_27
*470 FILLER_14_277
*471 FILLER_14_289
*472 FILLER_14_29
*473 FILLER_14_297
*474 FILLER_14_48
*475 FILLER_14_56
*476 FILLER_14_73
*477 FILLER_14_81
*478 FILLER_14_93
*479 FILLER_15_107
*480 FILLER_15_111
*481 FILLER_15_118
*482 FILLER_15_130
*483 FILLER_15_142
*484 FILLER_15_148
*485 FILLER_15_160
*486 FILLER_15_169
*487 FILLER_15_181
*488 FILLER_15_19
*489 FILLER_15_193
*490 FILLER_15_205
*491 FILLER_15_217
*492 FILLER_15_223
*493 FILLER_15_225
*494 FILLER_15_237
*495 FILLER_15_249
*496 FILLER_15_261
*497 FILLER_15_27
*498 FILLER_15_273
*499 FILLER_15_279
*500 FILLER_15_281
*501 FILLER_15_293
*502 FILLER_15_44
*503 FILLER_15_57
*504 FILLER_15_81
*505 FILLER_15_89
*506 FILLER_15_98
*507 FILLER_16_104
*508 FILLER_16_112
*509 FILLER_16_122
*510 FILLER_16_134
*511 FILLER_16_141
*512 FILLER_16_150
*513 FILLER_16_162
*514 FILLER_16_174
*515 FILLER_16_186
*516 FILLER_16_19
*517 FILLER_16_194
*518 FILLER_16_197
*519 FILLER_16_209
*520 FILLER_16_221
*521 FILLER_16_233
*522 FILLER_16_245
*523 FILLER_16_251
*524 FILLER_16_253
*525 FILLER_16_265
*526 FILLER_16_27
*527 FILLER_16_277
*528 FILLER_16_289
*529 FILLER_16_29
*530 FILLER_16_297
*531 FILLER_16_41
*532 FILLER_16_65
*533 FILLER_16_73
*534 FILLER_16_80
*535 FILLER_16_93
*536 FILLER_17_105
*537 FILLER_17_111
*538 FILLER_17_113
*539 FILLER_17_127
*540 FILLER_17_139
*541 FILLER_17_151
*542 FILLER_17_163
*543 FILLER_17_167
*544 FILLER_17_169
*545 FILLER_17_181
*546 FILLER_17_193
*547 FILLER_17_205
*548 FILLER_17_217
*549 FILLER_17_223
*550 FILLER_17_225
*551 FILLER_17_237
*552 FILLER_17_249
*553 FILLER_17_26
*554 FILLER_17_261
*555 FILLER_17_273
*556 FILLER_17_279
*557 FILLER_17_281
*558 FILLER_17_293
*559 FILLER_17_46
*560 FILLER_17_54
*561 FILLER_17_57
*562 FILLER_17_6
*563 FILLER_17_75
*564 FILLER_17_87
*565 FILLER_17_94
*566 FILLER_17_98
*567 FILLER_18_109
*568 FILLER_18_115
*569 FILLER_18_122
*570 FILLER_18_129
*571 FILLER_18_137
*572 FILLER_18_141
*573 FILLER_18_153
*574 FILLER_18_165
*575 FILLER_18_177
*576 FILLER_18_189
*577 FILLER_18_195
*578 FILLER_18_197
*579 FILLER_18_209
*580 FILLER_18_22
*581 FILLER_18_221
*582 FILLER_18_233
*583 FILLER_18_245
*584 FILLER_18_251
*585 FILLER_18_253
*586 FILLER_18_265
*587 FILLER_18_277
*588 FILLER_18_289
*589 FILLER_18_29
*590 FILLER_18_297
*591 FILLER_18_3
*592 FILLER_18_49
*593 FILLER_18_57
*594 FILLER_18_74
*595 FILLER_18_82
*596 FILLER_18_85
*597 FILLER_18_97
*598 FILLER_19_101
*599 FILLER_19_108
*600 FILLER_19_113
*601 FILLER_19_127
*602 FILLER_19_141
*603 FILLER_19_153
*604 FILLER_19_165
*605 FILLER_19_169
*606 FILLER_19_181
*607 FILLER_19_193
*608 FILLER_19_205
*609 FILLER_19_217
*610 FILLER_19_223
*611 FILLER_19_225
*612 FILLER_19_23
*613 FILLER_19_237
*614 FILLER_19_249
*615 FILLER_19_261
*616 FILLER_19_273
*617 FILLER_19_279
*618 FILLER_19_281
*619 FILLER_19_293
*620 FILLER_19_3
*621 FILLER_19_35
*622 FILLER_19_52
*623 FILLER_19_57
*624 FILLER_19_77
*625 FILLER_19_93
*626 FILLER_1_101
*627 FILLER_1_109
*628 FILLER_1_121
*629 FILLER_1_128
*630 FILLER_1_140
*631 FILLER_1_15
*632 FILLER_1_158
*633 FILLER_1_166
*634 FILLER_1_169
*635 FILLER_1_181
*636 FILLER_1_193
*637 FILLER_1_205
*638 FILLER_1_217
*639 FILLER_1_223
*640 FILLER_1_225
*641 FILLER_1_237
*642 FILLER_1_249
*643 FILLER_1_261
*644 FILLER_1_273
*645 FILLER_1_279
*646 FILLER_1_281
*647 FILLER_1_293
*648 FILLER_1_3
*649 FILLER_1_32
*650 FILLER_1_52
*651 FILLER_1_57
*652 FILLER_1_81
*653 FILLER_20_102
*654 FILLER_20_114
*655 FILLER_20_124
*656 FILLER_20_136
*657 FILLER_20_141
*658 FILLER_20_153
*659 FILLER_20_165
*660 FILLER_20_177
*661 FILLER_20_189
*662 FILLER_20_195
*663 FILLER_20_197
*664 FILLER_20_209
*665 FILLER_20_221
*666 FILLER_20_233
*667 FILLER_20_24
*668 FILLER_20_245
*669 FILLER_20_251
*670 FILLER_20_253
*671 FILLER_20_265
*672 FILLER_20_277
*673 FILLER_20_289
*674 FILLER_20_29
*675 FILLER_20_297
*676 FILLER_20_3
*677 FILLER_20_37
*678 FILLER_20_54
*679 FILLER_20_7
*680 FILLER_20_74
*681 FILLER_20_82
*682 FILLER_20_85
*683 FILLER_20_93
*684 FILLER_21_107
*685 FILLER_21_111
*686 FILLER_21_113
*687 FILLER_21_121
*688 FILLER_21_128
*689 FILLER_21_140
*690 FILLER_21_152
*691 FILLER_21_164
*692 FILLER_21_169
*693 FILLER_21_181
*694 FILLER_21_193
*695 FILLER_21_205
*696 FILLER_21_217
*697 FILLER_21_22
*698 FILLER_21_223
*699 FILLER_21_225
*700 FILLER_21_237
*701 FILLER_21_249
*702 FILLER_21_261
*703 FILLER_21_273
*704 FILLER_21_279
*705 FILLER_21_281
*706 FILLER_21_293
*707 FILLER_21_3
*708 FILLER_21_30
*709 FILLER_21_49
*710 FILLER_21_55
*711 FILLER_21_57
*712 FILLER_21_69
*713 FILLER_21_81
*714 FILLER_21_95
*715 FILLER_22_105
*716 FILLER_22_117
*717 FILLER_22_121
*718 FILLER_22_129
*719 FILLER_22_137
*720 FILLER_22_141
*721 FILLER_22_153
*722 FILLER_22_165
*723 FILLER_22_177
*724 FILLER_22_18
*725 FILLER_22_189
*726 FILLER_22_195
*727 FILLER_22_197
*728 FILLER_22_209
*729 FILLER_22_221
*730 FILLER_22_233
*731 FILLER_22_24
*732 FILLER_22_245
*733 FILLER_22_251
*734 FILLER_22_253
*735 FILLER_22_265
*736 FILLER_22_277
*737 FILLER_22_289
*738 FILLER_22_297
*739 FILLER_22_37
*740 FILLER_22_45
*741 FILLER_22_50
*742 FILLER_22_57
*743 FILLER_22_6
*744 FILLER_22_69
*745 FILLER_22_81
*746 FILLER_22_93
*747 FILLER_23_105
*748 FILLER_23_111
*749 FILLER_23_113
*750 FILLER_23_125
*751 FILLER_23_141
*752 FILLER_23_15
*753 FILLER_23_153
*754 FILLER_23_165
*755 FILLER_23_169
*756 FILLER_23_181
*757 FILLER_23_19
*758 FILLER_23_193
*759 FILLER_23_205
*760 FILLER_23_217
*761 FILLER_23_223
*762 FILLER_23_225
*763 FILLER_23_23
*764 FILLER_23_237
*765 FILLER_23_249
*766 FILLER_23_261
*767 FILLER_23_273
*768 FILLER_23_279
*769 FILLER_23_281
*770 FILLER_23_293
*771 FILLER_23_3
*772 FILLER_23_37
*773 FILLER_23_50
*774 FILLER_23_62
*775 FILLER_23_69
*776 FILLER_23_73
*777 FILLER_23_82
*778 FILLER_23_93
*779 FILLER_24_100
*780 FILLER_24_112
*781 FILLER_24_124
*782 FILLER_24_136
*783 FILLER_24_14
*784 FILLER_24_141
*785 FILLER_24_152
*786 FILLER_24_166
*787 FILLER_24_178
*788 FILLER_24_190
*789 FILLER_24_197
*790 FILLER_24_209
*791 FILLER_24_221
*792 FILLER_24_233
*793 FILLER_24_24
*794 FILLER_24_245
*795 FILLER_24_251
*796 FILLER_24_253
*797 FILLER_24_265
*798 FILLER_24_277
*799 FILLER_24_289
*800 FILLER_24_29
*801 FILLER_24_297
*802 FILLER_24_33
*803 FILLER_24_44
*804 FILLER_24_52
*805 FILLER_24_6
*806 FILLER_24_60
*807 FILLER_24_74
*808 FILLER_24_82
*809 FILLER_24_85
*810 FILLER_25_109
*811 FILLER_25_113
*812 FILLER_25_125
*813 FILLER_25_13
*814 FILLER_25_134
*815 FILLER_25_142
*816 FILLER_25_149
*817 FILLER_25_161
*818 FILLER_25_167
*819 FILLER_25_169
*820 FILLER_25_181
*821 FILLER_25_193
*822 FILLER_25_205
*823 FILLER_25_21
*824 FILLER_25_217
*825 FILLER_25_223
*826 FILLER_25_225
*827 FILLER_25_237
*828 FILLER_25_249
*829 FILLER_25_261
*830 FILLER_25_273
*831 FILLER_25_279
*832 FILLER_25_281
*833 FILLER_25_29
*834 FILLER_25_293
*835 FILLER_25_3
*836 FILLER_25_35
*837 FILLER_25_41
*838 FILLER_25_49
*839 FILLER_25_55
*840 FILLER_25_57
*841 FILLER_25_66
*842 FILLER_25_78
*843 FILLER_25_85
*844 FILLER_25_97
*845 FILLER_26_111
*846 FILLER_26_123
*847 FILLER_26_136
*848 FILLER_26_14
*849 FILLER_26_141
*850 FILLER_26_153
*851 FILLER_26_160
*852 FILLER_26_172
*853 FILLER_26_184
*854 FILLER_26_197
*855 FILLER_26_209
*856 FILLER_26_221
*857 FILLER_26_233
*858 FILLER_26_24
*859 FILLER_26_245
*860 FILLER_26_251
*861 FILLER_26_253
*862 FILLER_26_265
*863 FILLER_26_277
*864 FILLER_26_289
*865 FILLER_26_29
*866 FILLER_26_297
*867 FILLER_26_35
*868 FILLER_26_51
*869 FILLER_26_6
*870 FILLER_26_63
*871 FILLER_26_72
*872 FILLER_26_92
*873 FILLER_26_99
*874 FILLER_27_105
*875 FILLER_27_111
*876 FILLER_27_113
*877 FILLER_27_125
*878 FILLER_27_129
*879 FILLER_27_13
*880 FILLER_27_136
*881 FILLER_27_148
*882 FILLER_27_156
*883 FILLER_27_162
*884 FILLER_27_169
*885 FILLER_27_181
*886 FILLER_27_193
*887 FILLER_27_205
*888 FILLER_27_217
*889 FILLER_27_223
*890 FILLER_27_225
*891 FILLER_27_237
*892 FILLER_27_249
*893 FILLER_27_25
*894 FILLER_27_261
*895 FILLER_27_273
*896 FILLER_27_279
*897 FILLER_27_281
*898 FILLER_27_293
*899 FILLER_27_3
*900 FILLER_27_31
*901 FILLER_27_35
*902 FILLER_27_49
*903 FILLER_27_55
*904 FILLER_27_62
*905 FILLER_27_68
*906 FILLER_27_76
*907 FILLER_27_88
*908 FILLER_27_96
*909 FILLER_28_114
*910 FILLER_28_12
*911 FILLER_28_130
*912 FILLER_28_138
*913 FILLER_28_141
*914 FILLER_28_150
*915 FILLER_28_162
*916 FILLER_28_174
*917 FILLER_28_186
*918 FILLER_28_194
*919 FILLER_28_197
*920 FILLER_28_209
*921 FILLER_28_221
*922 FILLER_28_233
*923 FILLER_28_24
*924 FILLER_28_245
*925 FILLER_28_251
*926 FILLER_28_253
*927 FILLER_28_265
*928 FILLER_28_277
*929 FILLER_28_289
*930 FILLER_28_297
*931 FILLER_28_3
*932 FILLER_28_33
*933 FILLER_28_37
*934 FILLER_28_43
*935 FILLER_28_52
*936 FILLER_28_58
*937 FILLER_28_7
*938 FILLER_28_72
*939 FILLER_28_85
*940 FILLER_28_97
*941 FILLER_29_101
*942 FILLER_29_109
*943 FILLER_29_113
*944 FILLER_29_125
*945 FILLER_29_137
*946 FILLER_29_145
*947 FILLER_29_15
*948 FILLER_29_153
*949 FILLER_29_165
*950 FILLER_29_169
*951 FILLER_29_181
*952 FILLER_29_193
*953 FILLER_29_205
*954 FILLER_29_217
*955 FILLER_29_223
*956 FILLER_29_225
*957 FILLER_29_23
*958 FILLER_29_237
*959 FILLER_29_249
*960 FILLER_29_261
*961 FILLER_29_273
*962 FILLER_29_279
*963 FILLER_29_281
*964 FILLER_29_29
*965 FILLER_29_293
*966 FILLER_29_3
*967 FILLER_29_36
*968 FILLER_29_49
*969 FILLER_29_55
*970 FILLER_29_63
*971 FILLER_29_75
*972 FILLER_29_80
*973 FILLER_29_91
*974 FILLER_2_100
*975 FILLER_2_109
*976 FILLER_2_118
*977 FILLER_2_130
*978 FILLER_2_138
*979 FILLER_2_141
*980 FILLER_2_149
*981 FILLER_2_154
*982 FILLER_2_166
*983 FILLER_2_178
*984 FILLER_2_190
*985 FILLER_2_197
*986 FILLER_2_209
*987 FILLER_2_221
*988 FILLER_2_233
*989 FILLER_2_24
*990 FILLER_2_245
*991 FILLER_2_251
*992 FILLER_2_253
*993 FILLER_2_265
*994 FILLER_2_277
*995 FILLER_2_289
*996 FILLER_2_29
*997 FILLER_2_297
*998 FILLER_2_3
*999 FILLER_2_41
*1000 FILLER_2_65
*1001 FILLER_2_7
*1002 FILLER_2_73
*1003 FILLER_2_80
*1004 FILLER_2_85
*1005 FILLER_2_91
*1006 FILLER_30_105
*1007 FILLER_30_114
*1008 FILLER_30_121
*1009 FILLER_30_133
*1010 FILLER_30_139
*1011 FILLER_30_141
*1012 FILLER_30_147
*1013 FILLER_30_15
*1014 FILLER_30_158
*1015 FILLER_30_170
*1016 FILLER_30_182
*1017 FILLER_30_194
*1018 FILLER_30_197
*1019 FILLER_30_209
*1020 FILLER_30_221
*1021 FILLER_30_233
*1022 FILLER_30_245
*1023 FILLER_30_251
*1024 FILLER_30_253
*1025 FILLER_30_265
*1026 FILLER_30_27
*1027 FILLER_30_277
*1028 FILLER_30_289
*1029 FILLER_30_29
*1030 FILLER_30_297
*1031 FILLER_30_3
*1032 FILLER_30_37
*1033 FILLER_30_49
*1034 FILLER_30_53
*1035 FILLER_30_62
*1036 FILLER_30_72
*1037 FILLER_30_80
*1038 FILLER_30_85
*1039 FILLER_30_97
*1040 FILLER_31_103
*1041 FILLER_31_111
*1042 FILLER_31_113
*1043 FILLER_31_125
*1044 FILLER_31_137
*1045 FILLER_31_144
*1046 FILLER_31_15
*1047 FILLER_31_156
*1048 FILLER_31_169
*1049 FILLER_31_181
*1050 FILLER_31_193
*1051 FILLER_31_205
*1052 FILLER_31_21
*1053 FILLER_31_217
*1054 FILLER_31_223
*1055 FILLER_31_225
*1056 FILLER_31_237
*1057 FILLER_31_249
*1058 FILLER_31_25
*1059 FILLER_31_261
*1060 FILLER_31_273
*1061 FILLER_31_279
*1062 FILLER_31_281
*1063 FILLER_31_293
*1064 FILLER_31_3
*1065 FILLER_31_37
*1066 FILLER_31_49
*1067 FILLER_31_55
*1068 FILLER_31_65
*1069 FILLER_31_73
*1070 FILLER_31_79
*1071 FILLER_31_91
*1072 FILLER_32_108
*1073 FILLER_32_120
*1074 FILLER_32_132
*1075 FILLER_32_14
*1076 FILLER_32_141
*1077 FILLER_32_153
*1078 FILLER_32_165
*1079 FILLER_32_177
*1080 FILLER_32_189
*1081 FILLER_32_195
*1082 FILLER_32_197
*1083 FILLER_32_20
*1084 FILLER_32_209
*1085 FILLER_32_221
*1086 FILLER_32_233
*1087 FILLER_32_24
*1088 FILLER_32_245
*1089 FILLER_32_251
*1090 FILLER_32_253
*1091 FILLER_32_265
*1092 FILLER_32_277
*1093 FILLER_32_289
*1094 FILLER_32_297
*1095 FILLER_32_3
*1096 FILLER_32_34
*1097 FILLER_32_46
*1098 FILLER_32_58
*1099 FILLER_32_64
*1100 FILLER_32_69
*1101 FILLER_32_79
*1102 FILLER_32_83
*1103 FILLER_32_85
*1104 FILLER_32_9
*1105 FILLER_32_96
*1106 FILLER_33_103
*1107 FILLER_33_111
*1108 FILLER_33_113
*1109 FILLER_33_125
*1110 FILLER_33_137
*1111 FILLER_33_143
*1112 FILLER_33_15
*1113 FILLER_33_155
*1114 FILLER_33_167
*1115 FILLER_33_169
*1116 FILLER_33_181
*1117 FILLER_33_193
*1118 FILLER_33_205
*1119 FILLER_33_217
*1120 FILLER_33_223
*1121 FILLER_33_225
*1122 FILLER_33_237
*1123 FILLER_33_249
*1124 FILLER_33_261
*1125 FILLER_33_27
*1126 FILLER_33_273
*1127 FILLER_33_279
*1128 FILLER_33_281
*1129 FILLER_33_293
*1130 FILLER_33_3
*1131 FILLER_33_36
*1132 FILLER_33_43
*1133 FILLER_33_55
*1134 FILLER_33_62
*1135 FILLER_33_74
*1136 FILLER_33_83
*1137 FILLER_33_95
*1138 FILLER_34_109
*1139 FILLER_34_121
*1140 FILLER_34_13
*1141 FILLER_34_133
*1142 FILLER_34_139
*1143 FILLER_34_141
*1144 FILLER_34_153
*1145 FILLER_34_165
*1146 FILLER_34_177
*1147 FILLER_34_192
*1148 FILLER_34_197
*1149 FILLER_34_203
*1150 FILLER_34_207
*1151 FILLER_34_219
*1152 FILLER_34_231
*1153 FILLER_34_24
*1154 FILLER_34_243
*1155 FILLER_34_251
*1156 FILLER_34_253
*1157 FILLER_34_265
*1158 FILLER_34_277
*1159 FILLER_34_289
*1160 FILLER_34_297
*1161 FILLER_34_3
*1162 FILLER_34_38
*1163 FILLER_34_49
*1164 FILLER_34_61
*1165 FILLER_34_70
*1166 FILLER_34_77
*1167 FILLER_34_83
*1168 FILLER_34_85
*1169 FILLER_34_97
*1170 FILLER_35_107
*1171 FILLER_35_111
*1172 FILLER_35_113
*1173 FILLER_35_12
*1174 FILLER_35_125
*1175 FILLER_35_131
*1176 FILLER_35_143
*1177 FILLER_35_155
*1178 FILLER_35_167
*1179 FILLER_35_169
*1180 FILLER_35_181
*1181 FILLER_35_193
*1182 FILLER_35_20
*1183 FILLER_35_205
*1184 FILLER_35_217
*1185 FILLER_35_223
*1186 FILLER_35_225
*1187 FILLER_35_237
*1188 FILLER_35_249
*1189 FILLER_35_26
*1190 FILLER_35_261
*1191 FILLER_35_273
*1192 FILLER_35_279
*1193 FILLER_35_281
*1194 FILLER_35_293
*1195 FILLER_35_3
*1196 FILLER_35_34
*1197 FILLER_35_46
*1198 FILLER_35_54
*1199 FILLER_35_60
*1200 FILLER_35_7
*1201 FILLER_35_72
*1202 FILLER_35_80
*1203 FILLER_35_95
*1204 FILLER_36_109
*1205 FILLER_36_121
*1206 FILLER_36_133
*1207 FILLER_36_139
*1208 FILLER_36_141
*1209 FILLER_36_15
*1210 FILLER_36_153
*1211 FILLER_36_165
*1212 FILLER_36_177
*1213 FILLER_36_189
*1214 FILLER_36_195
*1215 FILLER_36_197
*1216 FILLER_36_209
*1217 FILLER_36_221
*1218 FILLER_36_233
*1219 FILLER_36_245
*1220 FILLER_36_251
*1221 FILLER_36_253
*1222 FILLER_36_265
*1223 FILLER_36_27
*1224 FILLER_36_277
*1225 FILLER_36_289
*1226 FILLER_36_297
*1227 FILLER_36_3
*1228 FILLER_36_35
*1229 FILLER_36_50
*1230 FILLER_36_62
*1231 FILLER_36_74
*1232 FILLER_36_82
*1233 FILLER_36_85
*1234 FILLER_36_97
*1235 FILLER_37_104
*1236 FILLER_37_113
*1237 FILLER_37_125
*1238 FILLER_37_129
*1239 FILLER_37_134
*1240 FILLER_37_146
*1241 FILLER_37_15
*1242 FILLER_37_158
*1243 FILLER_37_166
*1244 FILLER_37_173
*1245 FILLER_37_185
*1246 FILLER_37_197
*1247 FILLER_37_209
*1248 FILLER_37_221
*1249 FILLER_37_225
*1250 FILLER_37_237
*1251 FILLER_37_249
*1252 FILLER_37_261
*1253 FILLER_37_27
*1254 FILLER_37_273
*1255 FILLER_37_279
*1256 FILLER_37_281
*1257 FILLER_37_293
*1258 FILLER_37_3
*1259 FILLER_37_39
*1260 FILLER_37_51
*1261 FILLER_37_55
*1262 FILLER_37_57
*1263 FILLER_37_69
*1264 FILLER_37_81
*1265 FILLER_37_92
*1266 FILLER_38_109
*1267 FILLER_38_121
*1268 FILLER_38_133
*1269 FILLER_38_139
*1270 FILLER_38_141
*1271 FILLER_38_15
*1272 FILLER_38_153
*1273 FILLER_38_165
*1274 FILLER_38_177
*1275 FILLER_38_189
*1276 FILLER_38_195
*1277 FILLER_38_197
*1278 FILLER_38_209
*1279 FILLER_38_221
*1280 FILLER_38_233
*1281 FILLER_38_245
*1282 FILLER_38_251
*1283 FILLER_38_253
*1284 FILLER_38_265
*1285 FILLER_38_27
*1286 FILLER_38_277
*1287 FILLER_38_289
*1288 FILLER_38_29
*1289 FILLER_38_297
*1290 FILLER_38_3
*1291 FILLER_38_41
*1292 FILLER_38_50
*1293 FILLER_38_62
*1294 FILLER_38_74
*1295 FILLER_38_82
*1296 FILLER_38_85
*1297 FILLER_38_97
*1298 FILLER_39_111
*1299 FILLER_39_113
*1300 FILLER_39_125
*1301 FILLER_39_137
*1302 FILLER_39_149
*1303 FILLER_39_15
*1304 FILLER_39_161
*1305 FILLER_39_167
*1306 FILLER_39_169
*1307 FILLER_39_181
*1308 FILLER_39_193
*1309 FILLER_39_205
*1310 FILLER_39_217
*1311 FILLER_39_223
*1312 FILLER_39_225
*1313 FILLER_39_237
*1314 FILLER_39_249
*1315 FILLER_39_261
*1316 FILLER_39_27
*1317 FILLER_39_273
*1318 FILLER_39_279
*1319 FILLER_39_281
*1320 FILLER_39_293
*1321 FILLER_39_3
*1322 FILLER_39_39
*1323 FILLER_39_51
*1324 FILLER_39_55
*1325 FILLER_39_57
*1326 FILLER_39_69
*1327 FILLER_39_81
*1328 FILLER_39_93
*1329 FILLER_39_99
*1330 FILLER_3_100
*1331 FILLER_3_113
*1332 FILLER_3_117
*1333 FILLER_3_123
*1334 FILLER_3_135
*1335 FILLER_3_147
*1336 FILLER_3_15
*1337 FILLER_3_158
*1338 FILLER_3_166
*1339 FILLER_3_169
*1340 FILLER_3_181
*1341 FILLER_3_193
*1342 FILLER_3_199
*1343 FILLER_3_211
*1344 FILLER_3_223
*1345 FILLER_3_225
*1346 FILLER_3_237
*1347 FILLER_3_249
*1348 FILLER_3_261
*1349 FILLER_3_273
*1350 FILLER_3_279
*1351 FILLER_3_281
*1352 FILLER_3_293
*1353 FILLER_3_3
*1354 FILLER_3_36
*1355 FILLER_3_48
*1356 FILLER_3_57
*1357 FILLER_3_77
*1358 FILLER_3_88
*1359 FILLER_40_105
*1360 FILLER_40_112
*1361 FILLER_40_12
*1362 FILLER_40_124
*1363 FILLER_40_136
*1364 FILLER_40_141
*1365 FILLER_40_153
*1366 FILLER_40_165
*1367 FILLER_40_177
*1368 FILLER_40_189
*1369 FILLER_40_195
*1370 FILLER_40_197
*1371 FILLER_40_20
*1372 FILLER_40_209
*1373 FILLER_40_221
*1374 FILLER_40_233
*1375 FILLER_40_24
*1376 FILLER_40_245
*1377 FILLER_40_251
*1378 FILLER_40_253
*1379 FILLER_40_265
*1380 FILLER_40_277
*1381 FILLER_40_289
*1382 FILLER_40_29
*1383 FILLER_40_297
*1384 FILLER_40_3
*1385 FILLER_40_45
*1386 FILLER_40_57
*1387 FILLER_40_69
*1388 FILLER_40_7
*1389 FILLER_40_81
*1390 FILLER_40_85
*1391 FILLER_40_97
*1392 FILLER_41_105
*1393 FILLER_41_111
*1394 FILLER_41_113
*1395 FILLER_41_125
*1396 FILLER_41_137
*1397 FILLER_41_149
*1398 FILLER_41_15
*1399 FILLER_41_161
*1400 FILLER_41_167
*1401 FILLER_41_169
*1402 FILLER_41_181
*1403 FILLER_41_193
*1404 FILLER_41_205
*1405 FILLER_41_217
*1406 FILLER_41_223
*1407 FILLER_41_225
*1408 FILLER_41_237
*1409 FILLER_41_249
*1410 FILLER_41_261
*1411 FILLER_41_27
*1412 FILLER_41_273
*1413 FILLER_41_279
*1414 FILLER_41_281
*1415 FILLER_41_293
*1416 FILLER_41_3
*1417 FILLER_41_39
*1418 FILLER_41_51
*1419 FILLER_41_55
*1420 FILLER_41_57
*1421 FILLER_41_69
*1422 FILLER_41_81
*1423 FILLER_41_93
*1424 FILLER_42_109
*1425 FILLER_42_116
*1426 FILLER_42_128
*1427 FILLER_42_141
*1428 FILLER_42_15
*1429 FILLER_42_153
*1430 FILLER_42_165
*1431 FILLER_42_177
*1432 FILLER_42_189
*1433 FILLER_42_195
*1434 FILLER_42_197
*1435 FILLER_42_209
*1436 FILLER_42_221
*1437 FILLER_42_233
*1438 FILLER_42_245
*1439 FILLER_42_251
*1440 FILLER_42_253
*1441 FILLER_42_265
*1442 FILLER_42_27
*1443 FILLER_42_277
*1444 FILLER_42_289
*1445 FILLER_42_29
*1446 FILLER_42_297
*1447 FILLER_42_3
*1448 FILLER_42_41
*1449 FILLER_42_53
*1450 FILLER_42_65
*1451 FILLER_42_77
*1452 FILLER_42_83
*1453 FILLER_42_85
*1454 FILLER_42_97
*1455 FILLER_43_105
*1456 FILLER_43_111
*1457 FILLER_43_113
*1458 FILLER_43_125
*1459 FILLER_43_137
*1460 FILLER_43_149
*1461 FILLER_43_15
*1462 FILLER_43_161
*1463 FILLER_43_167
*1464 FILLER_43_169
*1465 FILLER_43_181
*1466 FILLER_43_193
*1467 FILLER_43_205
*1468 FILLER_43_217
*1469 FILLER_43_223
*1470 FILLER_43_225
*1471 FILLER_43_237
*1472 FILLER_43_249
*1473 FILLER_43_261
*1474 FILLER_43_27
*1475 FILLER_43_273
*1476 FILLER_43_279
*1477 FILLER_43_281
*1478 FILLER_43_293
*1479 FILLER_43_3
*1480 FILLER_43_39
*1481 FILLER_43_51
*1482 FILLER_43_55
*1483 FILLER_43_57
*1484 FILLER_43_69
*1485 FILLER_43_81
*1486 FILLER_43_93
*1487 FILLER_44_109
*1488 FILLER_44_121
*1489 FILLER_44_133
*1490 FILLER_44_139
*1491 FILLER_44_141
*1492 FILLER_44_15
*1493 FILLER_44_153
*1494 FILLER_44_165
*1495 FILLER_44_177
*1496 FILLER_44_189
*1497 FILLER_44_195
*1498 FILLER_44_197
*1499 FILLER_44_209
*1500 FILLER_44_221
*1501 FILLER_44_233
*1502 FILLER_44_245
*1503 FILLER_44_251
*1504 FILLER_44_253
*1505 FILLER_44_265
*1506 FILLER_44_27
*1507 FILLER_44_277
*1508 FILLER_44_289
*1509 FILLER_44_29
*1510 FILLER_44_297
*1511 FILLER_44_3
*1512 FILLER_44_41
*1513 FILLER_44_53
*1514 FILLER_44_65
*1515 FILLER_44_77
*1516 FILLER_44_83
*1517 FILLER_44_85
*1518 FILLER_44_97
*1519 FILLER_45_105
*1520 FILLER_45_111
*1521 FILLER_45_113
*1522 FILLER_45_125
*1523 FILLER_45_137
*1524 FILLER_45_149
*1525 FILLER_45_15
*1526 FILLER_45_161
*1527 FILLER_45_167
*1528 FILLER_45_169
*1529 FILLER_45_181
*1530 FILLER_45_193
*1531 FILLER_45_205
*1532 FILLER_45_217
*1533 FILLER_45_223
*1534 FILLER_45_225
*1535 FILLER_45_237
*1536 FILLER_45_249
*1537 FILLER_45_261
*1538 FILLER_45_27
*1539 FILLER_45_273
*1540 FILLER_45_279
*1541 FILLER_45_281
*1542 FILLER_45_293
*1543 FILLER_45_3
*1544 FILLER_45_39
*1545 FILLER_45_51
*1546 FILLER_45_55
*1547 FILLER_45_57
*1548 FILLER_45_69
*1549 FILLER_45_81
*1550 FILLER_45_93
*1551 FILLER_46_109
*1552 FILLER_46_121
*1553 FILLER_46_133
*1554 FILLER_46_139
*1555 FILLER_46_141
*1556 FILLER_46_15
*1557 FILLER_46_153
*1558 FILLER_46_165
*1559 FILLER_46_177
*1560 FILLER_46_189
*1561 FILLER_46_195
*1562 FILLER_46_197
*1563 FILLER_46_209
*1564 FILLER_46_221
*1565 FILLER_46_233
*1566 FILLER_46_245
*1567 FILLER_46_251
*1568 FILLER_46_253
*1569 FILLER_46_265
*1570 FILLER_46_27
*1571 FILLER_46_277
*1572 FILLER_46_289
*1573 FILLER_46_29
*1574 FILLER_46_297
*1575 FILLER_46_3
*1576 FILLER_46_41
*1577 FILLER_46_53
*1578 FILLER_46_65
*1579 FILLER_46_77
*1580 FILLER_46_83
*1581 FILLER_46_85
*1582 FILLER_46_97
*1583 FILLER_47_105
*1584 FILLER_47_111
*1585 FILLER_47_113
*1586 FILLER_47_125
*1587 FILLER_47_137
*1588 FILLER_47_149
*1589 FILLER_47_15
*1590 FILLER_47_161
*1591 FILLER_47_167
*1592 FILLER_47_169
*1593 FILLER_47_181
*1594 FILLER_47_193
*1595 FILLER_47_205
*1596 FILLER_47_217
*1597 FILLER_47_223
*1598 FILLER_47_225
*1599 FILLER_47_237
*1600 FILLER_47_249
*1601 FILLER_47_261
*1602 FILLER_47_27
*1603 FILLER_47_273
*1604 FILLER_47_279
*1605 FILLER_47_281
*1606 FILLER_47_293
*1607 FILLER_47_3
*1608 FILLER_47_39
*1609 FILLER_47_51
*1610 FILLER_47_55
*1611 FILLER_47_57
*1612 FILLER_47_69
*1613 FILLER_47_81
*1614 FILLER_47_93
*1615 FILLER_48_109
*1616 FILLER_48_121
*1617 FILLER_48_133
*1618 FILLER_48_139
*1619 FILLER_48_141
*1620 FILLER_48_15
*1621 FILLER_48_153
*1622 FILLER_48_165
*1623 FILLER_48_177
*1624 FILLER_48_189
*1625 FILLER_48_195
*1626 FILLER_48_197
*1627 FILLER_48_209
*1628 FILLER_48_221
*1629 FILLER_48_233
*1630 FILLER_48_245
*1631 FILLER_48_251
*1632 FILLER_48_253
*1633 FILLER_48_265
*1634 FILLER_48_27
*1635 FILLER_48_277
*1636 FILLER_48_289
*1637 FILLER_48_29
*1638 FILLER_48_297
*1639 FILLER_48_3
*1640 FILLER_48_41
*1641 FILLER_48_53
*1642 FILLER_48_65
*1643 FILLER_48_77
*1644 FILLER_48_83
*1645 FILLER_48_85
*1646 FILLER_48_97