*SPEF "ieee 1481-1999"
*DESIGN "krasin_3_bit_8_channel_pwm_driver"
*DATE "11:11:11 Fri 11 11, 1111"
*VENDOR "OpenRCX"
*PROGRAM "Parallel Extraction"
*VERSION "1.0"
*DESIGN_FLOW "NAME_SCOPE LOCAL" "PIN_CAP NONE"
*DIVIDER /
*DELIMITER :
*BUS_DELIMITER []
*T_UNIT 1 NS
*C_UNIT 1 PF
*R_UNIT 1 OHM
*L_UNIT 1 HENRY

*NAME_MAP
*1 io_in[0]
*2 io_in[1]
*3 io_in[2]
*4 io_in[3]
*5 io_in[4]
*6 io_in[5]
*7 io_in[6]
*8 io_in[7]
*9 io_out[0]
*10 io_out[1]
*11 io_out[2]
*12 io_out[3]
*13 io_out[4]
*14 io_out[5]
*15 io_out[6]
*16 io_out[7]
*19 _000_
*20 _001_
*21 _002_
*22 _003_
*23 _004_
*24 _005_
*25 _006_
*26 _007_
*27 _008_
*28 _009_
*29 _010_
*30 _011_
*31 _012_
*32 _013_
*33 _014_
*34 _015_
*35 _017_
*36 _018_
*37 _019_
*38 _020_
*39 _021_
*40 _022_
*41 _023_
*42 _024_
*43 _025_
*44 _026_
*45 _027_
*46 _028_
*47 _029_
*48 _030_
*49 _031_
*50 _032_
*51 _033_
*52 _034_
*53 _035_
*54 _036_
*55 _037_
*56 _038_
*57 _039_
*58 _040_
*59 _041_
*60 _042_
*61 _043_
*62 _044_
*63 _045_
*64 _046_
*65 _047_
*66 _048_
*67 _049_
*68 _050_
*69 _051_
*70 _052_
*71 _053_
*72 _054_
*73 _055_
*74 _056_
*75 _057_
*76 _058_
*77 _059_
*78 _060_
*79 _061_
*80 _062_
*81 _063_
*82 _064_
*83 _065_
*84 _066_
*85 _067_
*86 _068_
*87 _069_
*88 _070_
*89 _071_
*90 _072_
*91 _073_
*92 _074_
*93 _075_
*94 _076_
*95 _077_
*96 _078_
*97 _079_
*98 _080_
*99 _081_
*100 _082_
*101 _083_
*102 _084_
*103 _085_
*104 _086_
*105 _087_
*106 _088_
*107 _089_
*108 _090_
*109 _091_
*110 _092_
*111 _093_
*112 _094_
*113 _095_
*114 _096_
*115 _097_
*116 _098_
*117 _099_
*118 _100_
*119 _101_
*120 _102_
*121 _103_
*122 _104_
*123 _105_
*124 _106_
*125 _107_
*126 _108_
*127 _109_
*128 _110_
*129 _111_
*130 _112_
*131 _113_
*132 _114_
*133 _115_
*134 _116_
*135 _117_
*136 _118_
*137 _119_
*138 _120_
*139 _121_
*140 _122_
*141 _123_
*142 _124_
*143 _125_
*144 _126_
*145 _127_
*146 _128_
*147 _129_
*148 _130_
*149 _131_
*150 clknet_0_io_in[0]
*151 clknet_1_0__leaf_io_in[0]
*152 clknet_1_1__leaf_io_in[0]
*153 counter\[0\]
*154 counter\[1\]
*155 counter\[2\]
*156 is_on\$func\$\/work\/src\/pwm\.v\:54\$1\.\$result
*157 is_on\$func\$\/work\/src\/pwm\.v\:55\$2\.\$result
*158 is_on\$func\$\/work\/src\/pwm\.v\:56\$3\.\$result
*159 is_on\$func\$\/work\/src\/pwm\.v\:57\$4\.\$result
*160 is_on\$func\$\/work\/src\/pwm\.v\:58\$5\.\$result
*161 is_on\$func\$\/work\/src\/pwm\.v\:59\$6\.\$result
*162 is_on\$func\$\/work\/src\/pwm\.v\:60\$7\.\$result
*163 is_on\$func\$\/work\/src\/pwm\.v\:61\$8\.\$result
*164 net1
*165 net2
*166 net3
*167 net4
*168 net5
*169 net6
*170 net7
*171 net8
*172 pwm0_level\[0\]
*173 pwm0_level\[1\]
*174 pwm0_level\[2\]
*175 pwm1_level\[0\]
*176 pwm1_level\[1\]
*177 pwm1_level\[2\]
*178 pwm2_level\[0\]
*179 pwm2_level\[1\]
*180 pwm2_level\[2\]
*181 pwm3_level\[0\]
*182 pwm3_level\[1\]
*183 pwm3_level\[2\]
*184 pwm4_level\[0\]
*185 pwm4_level\[1\]
*186 pwm4_level\[2\]
*187 pwm5_level\[0\]
*188 pwm5_level\[1\]
*189 pwm5_level\[2\]
*190 pwm6_level\[0\]
*191 pwm6_level\[1\]
*192 pwm6_level\[2\]
*193 pwm7_level\[0\]
*194 pwm7_level\[1\]
*195 pwm7_level\[2\]
*196 reset_canary\[0\]
*197 ANTENNA_0
*198 ANTENNA_1
*199 ANTENNA_2
*200 ANTENNA_3
*201 ANTENNA_4
*202 ANTENNA_5
*203 ANTENNA_6
*204 ANTENNA_7
*205 FILLER_0_109
*206 FILLER_0_113
*207 FILLER_0_125
*208 FILLER_0_137
*209 FILLER_0_141
*210 FILLER_0_153
*211 FILLER_0_165
*212 FILLER_0_169
*213 FILLER_0_181
*214 FILLER_0_193
*215 FILLER_0_197
*216 FILLER_0_209
*217 FILLER_0_221
*218 FILLER_0_225
*219 FILLER_0_237
*220 FILLER_0_24
*221 FILLER_0_249
*222 FILLER_0_253
*223 FILLER_0_265
*224 FILLER_0_277
*225 FILLER_0_281
*226 FILLER_0_29
*227 FILLER_0_293
*228 FILLER_0_3
*229 FILLER_0_33
*230 FILLER_0_52
*231 FILLER_0_7
*232 FILLER_0_73
*233 FILLER_0_81
*234 FILLER_0_85
*235 FILLER_0_97
*236 FILLER_10_109
*237 FILLER_10_121
*238 FILLER_10_133
*239 FILLER_10_139
*240 FILLER_10_141
*241 FILLER_10_153
*242 FILLER_10_165
*243 FILLER_10_177
*244 FILLER_10_189
*245 FILLER_10_195
*246 FILLER_10_197
*247 FILLER_10_20
*248 FILLER_10_209
*249 FILLER_10_221
*250 FILLER_10_233
*251 FILLER_10_242
*252 FILLER_10_250
*253 FILLER_10_253
*254 FILLER_10_265
*255 FILLER_10_277
*256 FILLER_10_289
*257 FILLER_10_29
*258 FILLER_10_295
*259 FILLER_10_3
*260 FILLER_10_41
*261 FILLER_10_58
*262 FILLER_10_70
*263 FILLER_10_82
*264 FILLER_10_85
*265 FILLER_10_97
*266 FILLER_11_105
*267 FILLER_11_11
*268 FILLER_11_111
*269 FILLER_11_113
*270 FILLER_11_125
*271 FILLER_11_137
*272 FILLER_11_149
*273 FILLER_11_161
*274 FILLER_11_167
*275 FILLER_11_169
*276 FILLER_11_181
*277 FILLER_11_193
*278 FILLER_11_205
*279 FILLER_11_217
*280 FILLER_11_223
*281 FILLER_11_225
*282 FILLER_11_237
*283 FILLER_11_249
*284 FILLER_11_261
*285 FILLER_11_273
*286 FILLER_11_279
*287 FILLER_11_281
*288 FILLER_11_29
*289 FILLER_11_293
*290 FILLER_11_52
*291 FILLER_11_57
*292 FILLER_11_69
*293 FILLER_11_7
*294 FILLER_11_81
*295 FILLER_11_93
*296 FILLER_12_109
*297 FILLER_12_121
*298 FILLER_12_133
*299 FILLER_12_139
*300 FILLER_12_141
*301 FILLER_12_153
*302 FILLER_12_165
*303 FILLER_12_177
*304 FILLER_12_189
*305 FILLER_12_195
*306 FILLER_12_197
*307 FILLER_12_209
*308 FILLER_12_221
*309 FILLER_12_233
*310 FILLER_12_24
*311 FILLER_12_245
*312 FILLER_12_251
*313 FILLER_12_253
*314 FILLER_12_265
*315 FILLER_12_277
*316 FILLER_12_289
*317 FILLER_12_29
*318 FILLER_12_297
*319 FILLER_12_3
*320 FILLER_12_37
*321 FILLER_12_40
*322 FILLER_12_59
*323 FILLER_12_7
*324 FILLER_12_71
*325 FILLER_12_83
*326 FILLER_12_85
*327 FILLER_12_97
*328 FILLER_13_105
*329 FILLER_13_11
*330 FILLER_13_111
*331 FILLER_13_113
*332 FILLER_13_125
*333 FILLER_13_137
*334 FILLER_13_149
*335 FILLER_13_161
*336 FILLER_13_167
*337 FILLER_13_169
*338 FILLER_13_181
*339 FILLER_13_193
*340 FILLER_13_205
*341 FILLER_13_217
*342 FILLER_13_223
*343 FILLER_13_225
*344 FILLER_13_237
*345 FILLER_13_249
*346 FILLER_13_261
*347 FILLER_13_273
*348 FILLER_13_279
*349 FILLER_13_28
*350 FILLER_13_281
*351 FILLER_13_287
*352 FILLER_13_291
*353 FILLER_13_3
*354 FILLER_13_32
*355 FILLER_13_51
*356 FILLER_13_55
*357 FILLER_13_57
*358 FILLER_13_69
*359 FILLER_13_81
*360 FILLER_13_93
*361 FILLER_14_109
*362 FILLER_14_121
*363 FILLER_14_133
*364 FILLER_14_139
*365 FILLER_14_141
*366 FILLER_14_153
*367 FILLER_14_165
*368 FILLER_14_177
*369 FILLER_14_189
*370 FILLER_14_19
*371 FILLER_14_195
*372 FILLER_14_197
*373 FILLER_14_209
*374 FILLER_14_221
*375 FILLER_14_233
*376 FILLER_14_240
*377 FILLER_14_253
*378 FILLER_14_265
*379 FILLER_14_27
*380 FILLER_14_277
*381 FILLER_14_285
*382 FILLER_14_29
*383 FILLER_14_295
*384 FILLER_14_57
*385 FILLER_14_69
*386 FILLER_14_81
*387 FILLER_14_85
*388 FILLER_14_97
*389 FILLER_15_105
*390 FILLER_15_111
*391 FILLER_15_113
*392 FILLER_15_125
*393 FILLER_15_137
*394 FILLER_15_149
*395 FILLER_15_15
*396 FILLER_15_161
*397 FILLER_15_167
*398 FILLER_15_169
*399 FILLER_15_181
*400 FILLER_15_193
*401 FILLER_15_205
*402 FILLER_15_217
*403 FILLER_15_223
*404 FILLER_15_225
*405 FILLER_15_237
*406 FILLER_15_249
*407 FILLER_15_261
*408 FILLER_15_27
*409 FILLER_15_273
*410 FILLER_15_279
*411 FILLER_15_281
*412 FILLER_15_289
*413 FILLER_15_295
*414 FILLER_15_3
*415 FILLER_15_39
*416 FILLER_15_51
*417 FILLER_15_55
*418 FILLER_15_57
*419 FILLER_15_69
*420 FILLER_15_81
*421 FILLER_15_93
*422 FILLER_16_109
*423 FILLER_16_11
*424 FILLER_16_121
*425 FILLER_16_133
*426 FILLER_16_139
*427 FILLER_16_141
*428 FILLER_16_153
*429 FILLER_16_165
*430 FILLER_16_177
*431 FILLER_16_18
*432 FILLER_16_189
*433 FILLER_16_195
*434 FILLER_16_197
*435 FILLER_16_209
*436 FILLER_16_221
*437 FILLER_16_233
*438 FILLER_16_245
*439 FILLER_16_251
*440 FILLER_16_253
*441 FILLER_16_26
*442 FILLER_16_265
*443 FILLER_16_277
*444 FILLER_16_289
*445 FILLER_16_29
*446 FILLER_16_297
*447 FILLER_16_3
*448 FILLER_16_35
*449 FILLER_16_43
*450 FILLER_16_55
*451 FILLER_16_67
*452 FILLER_16_79
*453 FILLER_16_83
*454 FILLER_16_85
*455 FILLER_16_97
*456 FILLER_17_108
*457 FILLER_17_11
*458 FILLER_17_118
*459 FILLER_17_130
*460 FILLER_17_142
*461 FILLER_17_154
*462 FILLER_17_166
*463 FILLER_17_169
*464 FILLER_17_181
*465 FILLER_17_193
*466 FILLER_17_20
*467 FILLER_17_205
*468 FILLER_17_217
*469 FILLER_17_223
*470 FILLER_17_225
*471 FILLER_17_237
*472 FILLER_17_249
*473 FILLER_17_261
*474 FILLER_17_273
*475 FILLER_17_279
*476 FILLER_17_281
*477 FILLER_17_29
*478 FILLER_17_293
*479 FILLER_17_3
*480 FILLER_17_33
*481 FILLER_17_42
*482 FILLER_17_54
*483 FILLER_17_60
*484 FILLER_17_72
*485 FILLER_17_76
*486 FILLER_17_87
*487 FILLER_18_105
*488 FILLER_18_117
*489 FILLER_18_129
*490 FILLER_18_137
*491 FILLER_18_141
*492 FILLER_18_15
*493 FILLER_18_153
*494 FILLER_18_165
*495 FILLER_18_177
*496 FILLER_18_189
*497 FILLER_18_195
*498 FILLER_18_197
*499 FILLER_18_209
*500 FILLER_18_221
*501 FILLER_18_233
*502 FILLER_18_237
*503 FILLER_18_249
*504 FILLER_18_253
*505 FILLER_18_265
*506 FILLER_18_27
*507 FILLER_18_277
*508 FILLER_18_289
*509 FILLER_18_297
*510 FILLER_18_3
*511 FILLER_18_36
*512 FILLER_18_48
*513 FILLER_18_54
*514 FILLER_18_59
*515 FILLER_18_71
*516 FILLER_18_83
*517 FILLER_18_85
*518 FILLER_18_93
*519 FILLER_19_110
*520 FILLER_19_113
*521 FILLER_19_12
*522 FILLER_19_125
*523 FILLER_19_137
*524 FILLER_19_149
*525 FILLER_19_161
*526 FILLER_19_167
*527 FILLER_19_169
*528 FILLER_19_181
*529 FILLER_19_193
*530 FILLER_19_205
*531 FILLER_19_217
*532 FILLER_19_223
*533 FILLER_19_225
*534 FILLER_19_237
*535 FILLER_19_24
*536 FILLER_19_249
*537 FILLER_19_261
*538 FILLER_19_273
*539 FILLER_19_279
*540 FILLER_19_281
*541 FILLER_19_293
*542 FILLER_19_3
*543 FILLER_19_36
*544 FILLER_19_48
*545 FILLER_19_57
*546 FILLER_19_65
*547 FILLER_19_74
*548 FILLER_19_85
*549 FILLER_19_98
*550 FILLER_1_11
*551 FILLER_1_111
*552 FILLER_1_113
*553 FILLER_1_125
*554 FILLER_1_134
*555 FILLER_1_146
*556 FILLER_1_158
*557 FILLER_1_166
*558 FILLER_1_169
*559 FILLER_1_193
*560 FILLER_1_205
*561 FILLER_1_217
*562 FILLER_1_223
*563 FILLER_1_225
*564 FILLER_1_237
*565 FILLER_1_249
*566 FILLER_1_261
*567 FILLER_1_273
*568 FILLER_1_279
*569 FILLER_1_28
*570 FILLER_1_281
*571 FILLER_1_293
*572 FILLER_1_3
*573 FILLER_1_33
*574 FILLER_1_52
*575 FILLER_1_66
*576 FILLER_1_78
*577 FILLER_1_87
*578 FILLER_1_99
*579 FILLER_20_109
*580 FILLER_20_11
*581 FILLER_20_121
*582 FILLER_20_133
*583 FILLER_20_139
*584 FILLER_20_141
*585 FILLER_20_153
*586 FILLER_20_165
*587 FILLER_20_177
*588 FILLER_20_189
*589 FILLER_20_195
*590 FILLER_20_197
*591 FILLER_20_209
*592 FILLER_20_221
*593 FILLER_20_23
*594 FILLER_20_233
*595 FILLER_20_245
*596 FILLER_20_251
*597 FILLER_20_253
*598 FILLER_20_265
*599 FILLER_20_27
*600 FILLER_20_277
*601 FILLER_20_289
*602 FILLER_20_29
*603 FILLER_20_297
*604 FILLER_20_3
*605 FILLER_20_33
*606 FILLER_20_39
*607 FILLER_20_51
*608 FILLER_20_63
*609 FILLER_20_75
*610 FILLER_20_83
*611 FILLER_20_85
*612 FILLER_20_97
*613 FILLER_21_106
*614 FILLER_21_113
*615 FILLER_21_12
*616 FILLER_21_125
*617 FILLER_21_137
*618 FILLER_21_149
*619 FILLER_21_161
*620 FILLER_21_167
*621 FILLER_21_169
*622 FILLER_21_181
*623 FILLER_21_192
*624 FILLER_21_204
*625 FILLER_21_215
*626 FILLER_21_223
*627 FILLER_21_225
*628 FILLER_21_237
*629 FILLER_21_24
*630 FILLER_21_249
*631 FILLER_21_261
*632 FILLER_21_273
*633 FILLER_21_279
*634 FILLER_21_281
*635 FILLER_21_293
*636 FILLER_21_3
*637 FILLER_21_30
*638 FILLER_21_42
*639 FILLER_21_54
*640 FILLER_21_57
*641 FILLER_21_68
*642 FILLER_21_79
*643 FILLER_21_94
*644 FILLER_22_110
*645 FILLER_22_122
*646 FILLER_22_134
*647 FILLER_22_141
*648 FILLER_22_15
*649 FILLER_22_153
*650 FILLER_22_165
*651 FILLER_22_177
*652 FILLER_22_189
*653 FILLER_22_195
*654 FILLER_22_197
*655 FILLER_22_209
*656 FILLER_22_221
*657 FILLER_22_233
*658 FILLER_22_239
*659 FILLER_22_244
*660 FILLER_22_253
*661 FILLER_22_265
*662 FILLER_22_27
*663 FILLER_22_277
*664 FILLER_22_280
*665 FILLER_22_286
*666 FILLER_22_29
*667 FILLER_22_298
*668 FILLER_22_3
*669 FILLER_22_41
*670 FILLER_22_49
*671 FILLER_22_58
*672 FILLER_22_70
*673 FILLER_22_82
*674 FILLER_22_85
*675 FILLER_22_98
*676 FILLER_23_100
*677 FILLER_23_113
*678 FILLER_23_12
*679 FILLER_23_125
*680 FILLER_23_137
*681 FILLER_23_149
*682 FILLER_23_161
*683 FILLER_23_167
*684 FILLER_23_169
*685 FILLER_23_181
*686 FILLER_23_193
*687 FILLER_23_205
*688 FILLER_23_217
*689 FILLER_23_223
*690 FILLER_23_225
*691 FILLER_23_237
*692 FILLER_23_24
*693 FILLER_23_249
*694 FILLER_23_261
*695 FILLER_23_273
*696 FILLER_23_279
*697 FILLER_23_281
*698 FILLER_23_293
*699 FILLER_23_3
*700 FILLER_23_36
*701 FILLER_23_48
*702 FILLER_23_62
*703 FILLER_23_66
*704 FILLER_23_76
*705 FILLER_23_88
*706 FILLER_24_113
*707 FILLER_24_125
*708 FILLER_24_13
*709 FILLER_24_137
*710 FILLER_24_141
*711 FILLER_24_153
*712 FILLER_24_165
*713 FILLER_24_177
*714 FILLER_24_189
*715 FILLER_24_195
*716 FILLER_24_197
*717 FILLER_24_209
*718 FILLER_24_221
*719 FILLER_24_233
*720 FILLER_24_245
*721 FILLER_24_25
*722 FILLER_24_251
*723 FILLER_24_253
*724 FILLER_24_265
*725 FILLER_24_277
*726 FILLER_24_289
*727 FILLER_24_29
*728 FILLER_24_297
*729 FILLER_24_41
*730 FILLER_24_53
*731 FILLER_24_65
*732 FILLER_24_77
*733 FILLER_24_83
*734 FILLER_24_92
*735 FILLER_25_11
*736 FILLER_25_111
*737 FILLER_25_113
*738 FILLER_25_125
*739 FILLER_25_137
*740 FILLER_25_149
*741 FILLER_25_161
*742 FILLER_25_167
*743 FILLER_25_169
*744 FILLER_25_181
*745 FILLER_25_193
*746 FILLER_25_205
*747 FILLER_25_217
*748 FILLER_25_223
*749 FILLER_25_225
*750 FILLER_25_23
*751 FILLER_25_237
*752 FILLER_25_249
*753 FILLER_25_261
*754 FILLER_25_273
*755 FILLER_25_279
*756 FILLER_25_281
*757 FILLER_25_29
*758 FILLER_25_293
*759 FILLER_25_3
*760 FILLER_25_33
*761 FILLER_25_45
*762 FILLER_25_53
*763 FILLER_25_57
*764 FILLER_25_69
*765 FILLER_25_77
*766 FILLER_25_87
*767 FILLER_25_99
*768 FILLER_26_109
*769 FILLER_26_121
*770 FILLER_26_133
*771 FILLER_26_139
*772 FILLER_26_141
*773 FILLER_26_15
*774 FILLER_26_153
*775 FILLER_26_165
*776 FILLER_26_177
*777 FILLER_26_183
*778 FILLER_26_195
*779 FILLER_26_197
*780 FILLER_26_205
*781 FILLER_26_217
*782 FILLER_26_229
*783 FILLER_26_241
*784 FILLER_26_249
*785 FILLER_26_253
*786 FILLER_26_265
*787 FILLER_26_27
*788 FILLER_26_277
*789 FILLER_26_289
*790 FILLER_26_29
*791 FILLER_26_297
*792 FILLER_26_3
*793 FILLER_26_41
*794 FILLER_26_53
*795 FILLER_26_65
*796 FILLER_26_77
*797 FILLER_26_83
*798 FILLER_26_85
*799 FILLER_26_97
*800 FILLER_27_108
*801 FILLER_27_11
*802 FILLER_27_113
*803 FILLER_27_125
*804 FILLER_27_137
*805 FILLER_27_149
*806 FILLER_27_161
*807 FILLER_27_167
*808 FILLER_27_169
*809 FILLER_27_18
*810 FILLER_27_181
*811 FILLER_27_190
*812 FILLER_27_202
*813 FILLER_27_214
*814 FILLER_27_222
*815 FILLER_27_225
*816 FILLER_27_237
*817 FILLER_27_249
*818 FILLER_27_261
*819 FILLER_27_273
*820 FILLER_27_279
*821 FILLER_27_281
*822 FILLER_27_295
*823 FILLER_27_3
*824 FILLER_27_30
*825 FILLER_27_42
*826 FILLER_27_54
*827 FILLER_27_57
*828 FILLER_27_66
*829 FILLER_27_78
*830 FILLER_27_86
*831 FILLER_27_94
*832 FILLER_28_105
*833 FILLER_28_117
*834 FILLER_28_124
*835 FILLER_28_136
*836 FILLER_28_141
*837 FILLER_28_15
*838 FILLER_28_153
*839 FILLER_28_165
*840 FILLER_28_177
*841 FILLER_28_189
*842 FILLER_28_195
*843 FILLER_28_197
*844 FILLER_28_209
*845 FILLER_28_221
*846 FILLER_28_233
*847 FILLER_28_245
*848 FILLER_28_251
*849 FILLER_28_253
*850 FILLER_28_265
*851 FILLER_28_27
*852 FILLER_28_277
*853 FILLER_28_289
*854 FILLER_28_29
*855 FILLER_28_297
*856 FILLER_28_3
*857 FILLER_28_41
*858 FILLER_28_53
*859 FILLER_28_65
*860 FILLER_28_71
*861 FILLER_28_83
*862 FILLER_28_85
*863 FILLER_28_93
*864 FILLER_29_106
*865 FILLER_29_113
*866 FILLER_29_125
*867 FILLER_29_137
*868 FILLER_29_149
*869 FILLER_29_15
*870 FILLER_29_161
*871 FILLER_29_167
*872 FILLER_29_169
*873 FILLER_29_175
*874 FILLER_29_186
*875 FILLER_29_198
*876 FILLER_29_210
*877 FILLER_29_222
*878 FILLER_29_225
*879 FILLER_29_237
*880 FILLER_29_249
*881 FILLER_29_261
*882 FILLER_29_27
*883 FILLER_29_273
*884 FILLER_29_279
*885 FILLER_29_281
*886 FILLER_29_293
*887 FILLER_29_3
*888 FILLER_29_39
*889 FILLER_29_51
*890 FILLER_29_55
*891 FILLER_29_57
*892 FILLER_29_69
*893 FILLER_29_82
*894 FILLER_29_94
*895 FILLER_2_109
*896 FILLER_2_121
*897 FILLER_2_133
*898 FILLER_2_139
*899 FILLER_2_141
*900 FILLER_2_153
*901 FILLER_2_165
*902 FILLER_2_177
*903 FILLER_2_189
*904 FILLER_2_19
*905 FILLER_2_195
*906 FILLER_2_197
*907 FILLER_2_209
*908 FILLER_2_221
*909 FILLER_2_233
*910 FILLER_2_245
*911 FILLER_2_251
*912 FILLER_2_253
*913 FILLER_2_265
*914 FILLER_2_27
*915 FILLER_2_277
*916 FILLER_2_289
*917 FILLER_2_29
*918 FILLER_2_297
*919 FILLER_2_39
*920 FILLER_2_58
*921 FILLER_2_70
*922 FILLER_2_82
*923 FILLER_2_97
*924 FILLER_30_109
*925 FILLER_30_121
*926 FILLER_30_133
*927 FILLER_30_139
*928 FILLER_30_141
*929 FILLER_30_15
*930 FILLER_30_153
*931 FILLER_30_165
*932 FILLER_30_177
*933 FILLER_30_189
*934 FILLER_30_195
*935 FILLER_30_197
*936 FILLER_30_209
*937 FILLER_30_221
*938 FILLER_30_233
*939 FILLER_30_245
*940 FILLER_30_251
*941 FILLER_30_253
*942 FILLER_30_265
*943 FILLER_30_27
*944 FILLER_30_277
*945 FILLER_30_289
*946 FILLER_30_29
*947 FILLER_30_297
*948 FILLER_30_3
*949 FILLER_30_41
*950 FILLER_30_53
*951 FILLER_30_65
*952 FILLER_30_77
*953 FILLER_30_83
*954 FILLER_30_85
*955 FILLER_30_97
*956 FILLER_31_105
*957 FILLER_31_111
*958 FILLER_31_113
*959 FILLER_31_125
*960 FILLER_31_137
*961 FILLER_31_149
*962 FILLER_31_15
*963 FILLER_31_161
*964 FILLER_31_167
*965 FILLER_31_176
*966 FILLER_31_184
*967 FILLER_31_196
*968 FILLER_31_208
*969 FILLER_31_220
*970 FILLER_31_225
*971 FILLER_31_237
*972 FILLER_31_249
*973 FILLER_31_261
*974 FILLER_31_27
*975 FILLER_31_273
*976 FILLER_31_279
*977 FILLER_31_281
*978 FILLER_31_293
*979 FILLER_31_3
*980 FILLER_31_39
*981 FILLER_31_51
*982 FILLER_31_55
*983 FILLER_31_57
*984 FILLER_31_69
*985 FILLER_31_81
*986 FILLER_31_93
*987 FILLER_32_108
*988 FILLER_32_120
*989 FILLER_32_132
*990 FILLER_32_141
*991 FILLER_32_15
*992 FILLER_32_153
*993 FILLER_32_174
*994 FILLER_32_186
*995 FILLER_32_194
*996 FILLER_32_197
*997 FILLER_32_209
*998 FILLER_32_221
*999 FILLER_32_233
*1000 FILLER_32_245
*1001 FILLER_32_251
*1002 FILLER_32_253
*1003 FILLER_32_265
*1004 FILLER_32_27
*1005 FILLER_32_277
*1006 FILLER_32_289
*1007 FILLER_32_29
*1008 FILLER_32_297
*1009 FILLER_32_3
*1010 FILLER_32_41
*1011 FILLER_32_53
*1012 FILLER_32_65
*1013 FILLER_32_77
*1014 FILLER_32_83
*1015 FILLER_32_85
*1016 FILLER_32_96
*1017 FILLER_33_102
*1018 FILLER_33_110
*1019 FILLER_33_113
*1020 FILLER_33_125
*1021 FILLER_33_137
*1022 FILLER_33_149
*1023 FILLER_33_15
*1024 FILLER_33_161
*1025 FILLER_33_167
*1026 FILLER_33_169
*1027 FILLER_33_177
*1028 FILLER_33_189
*1029 FILLER_33_201
*1030 FILLER_33_213
*1031 FILLER_33_221
*1032 FILLER_33_225
*1033 FILLER_33_237
*1034 FILLER_33_249
*1035 FILLER_33_261
*1036 FILLER_33_27
*1037 FILLER_33_273
*1038 FILLER_33_279
*1039 FILLER_33_281
*1040 FILLER_33_289
*1041 FILLER_33_295
*1042 FILLER_33_3
*1043 FILLER_33_39
*1044 FILLER_33_51
*1045 FILLER_33_55
*1046 FILLER_33_57
*1047 FILLER_33_69
*1048 FILLER_33_81
*1049 FILLER_33_93
*1050 FILLER_34_105
*1051 FILLER_34_117
*1052 FILLER_34_129
*1053 FILLER_34_137
*1054 FILLER_34_141
*1055 FILLER_34_15
*1056 FILLER_34_153
*1057 FILLER_34_165
*1058 FILLER_34_177
*1059 FILLER_34_186
*1060 FILLER_34_194
*1061 FILLER_34_197
*1062 FILLER_34_209
*1063 FILLER_34_221
*1064 FILLER_34_233
*1065 FILLER_34_245
*1066 FILLER_34_251
*1067 FILLER_34_253
*1068 FILLER_34_265
*1069 FILLER_34_27
*1070 FILLER_34_273
*1071 FILLER_34_285
*1072 FILLER_34_29
*1073 FILLER_34_297
*1074 FILLER_34_3
*1075 FILLER_34_37
*1076 FILLER_34_49
*1077 FILLER_34_61
*1078 FILLER_34_73
*1079 FILLER_34_81
*1080 FILLER_34_85
*1081 FILLER_34_97
*1082 FILLER_35_104
*1083 FILLER_35_113
*1084 FILLER_35_125
*1085 FILLER_35_138
*1086 FILLER_35_15
*1087 FILLER_35_150
*1088 FILLER_35_158
*1089 FILLER_35_164
*1090 FILLER_35_169
*1091 FILLER_35_177
*1092 FILLER_35_189
*1093 FILLER_35_201
*1094 FILLER_35_213
*1095 FILLER_35_221
*1096 FILLER_35_225
*1097 FILLER_35_237
*1098 FILLER_35_249
*1099 FILLER_35_261
*1100 FILLER_35_27
*1101 FILLER_35_273
*1102 FILLER_35_279
*1103 FILLER_35_281
*1104 FILLER_35_293
*1105 FILLER_35_3
*1106 FILLER_35_39
*1107 FILLER_35_51
*1108 FILLER_35_55
*1109 FILLER_35_57
*1110 FILLER_35_69
*1111 FILLER_35_81
*1112 FILLER_35_93
*1113 FILLER_36_109
*1114 FILLER_36_117
*1115 FILLER_36_129
*1116 FILLER_36_137
*1117 FILLER_36_141
*1118 FILLER_36_15
*1119 FILLER_36_153
*1120 FILLER_36_165
*1121 FILLER_36_177
*1122 FILLER_36_189
*1123 FILLER_36_195
*1124 FILLER_36_197
*1125 FILLER_36_209
*1126 FILLER_36_221
*1127 FILLER_36_233
*1128 FILLER_36_245
*1129 FILLER_36_251
*1130 FILLER_36_253
*1131 FILLER_36_265
*1132 FILLER_36_27
*1133 FILLER_36_277
*1134 FILLER_36_289
*1135 FILLER_36_29
*1136 FILLER_36_297
*1137 FILLER_36_3
*1138 FILLER_36_36
*1139 FILLER_36_48
*1140 FILLER_36_60
*1141 FILLER_36_72
*1142 FILLER_36_85
*1143 FILLER_36_97
*1144 FILLER_37_101
*1145 FILLER_37_107
*1146 FILLER_37_111
*1147 FILLER_37_113
*1148 FILLER_37_126
*1149 FILLER_37_138
*1150 FILLER_37_15
*1151 FILLER_37_150
*1152 FILLER_37_162
*1153 FILLER_37_176
*1154 FILLER_37_188
*1155 FILLER_37_200
*1156 FILLER_37_212
*1157 FILLER_37_225
*1158 FILLER_37_23
*1159 FILLER_37_237
*1160 FILLER_37_249
*1161 FILLER_37_261
*1162 FILLER_37_273
*1163 FILLER_37_279
*1164 FILLER_37_281
*1165 FILLER_37_293
*1166 FILLER_37_3
*1167 FILLER_37_35
*1168 FILLER_37_47
*1169 FILLER_37_55
*1170 FILLER_37_57
*1171 FILLER_37_69
*1172 FILLER_37_81
*1173 FILLER_37_93
*1174 FILLER_38_109
*1175 FILLER_38_121
*1176 FILLER_38_133
*1177 FILLER_38_139
*1178 FILLER_38_14
*1179 FILLER_38_141
*1180 FILLER_38_153
*1181 FILLER_38_165
*1182 FILLER_38_177
*1183 FILLER_38_189
*1184 FILLER_38_195
*1185 FILLER_38_197
*1186 FILLER_38_209
*1187 FILLER_38_221
*1188 FILLER_38_233
*1189 FILLER_38_245
*1190 FILLER_38_251
*1191 FILLER_38_253
*1192 FILLER_38_26
*1193 FILLER_38_265
*1194 FILLER_38_277
*1195 FILLER_38_289
*1196 FILLER_38_297
*1197 FILLER_38_3
*1198 FILLER_38_36
*1199 FILLER_38_44
*1200 FILLER_38_50
*1201 FILLER_38_62
*1202 FILLER_38_74
*1203 FILLER_38_82
*1204 FILLER_38_85
*1205 FILLER_38_97
*1206 FILLER_39_105
*1207 FILLER_39_111
*1208 FILLER_39_113
*1209 FILLER_39_125
*1210 FILLER_39_137
*1211 FILLER_39_149
*1212 FILLER_39_15
*1213 FILLER_39_161
*1214 FILLER_39_167
*1215 FILLER_39_169
*1216 FILLER_39_181
*1217 FILLER_39_185
*1218 FILLER_39_19
*1219 FILLER_39_195
*1220 FILLER_39_207
*1221 FILLER_39_219
*1222 FILLER_39_223
*1223 FILLER_39_225
*1224 FILLER_39_237
*1225 FILLER_39_249
*1226 FILLER_39_261
*1227 FILLER_39_273
*1228 FILLER_39_279
*1229 FILLER_39_281
*1230 FILLER_39_29
*1231 FILLER_39_293
*1232 FILLER_39_3
*1233 FILLER_39_40
*1234 FILLER_39_46
*1235 FILLER_39_52
*1236 FILLER_39_57
*1237 FILLER_39_69
*1238 FILLER_39_81
*1239 FILLER_39_93
*1240 FILLER_3_104
*1241 FILLER_3_11
*1242 FILLER_3_113
*1243 FILLER_3_125
*1244 FILLER_3_137
*1245 FILLER_3_149
*1246 FILLER_3_15
*1247 FILLER_3_161
*1248 FILLER_3_167
*1249 FILLER_3_169
*1250 FILLER_3_181
*1251 FILLER_3_193
*1252 FILLER_3_205
*1253 FILLER_3_217
*1254 FILLER_3_223
*1255 FILLER_3_225
*1256 FILLER_3_237
*1257 FILLER_3_249
*1258 FILLER_3_261
*1259 FILLER_3_273
*1260 FILLER_3_279
*1261 FILLER_3_281
*1262 FILLER_3_293
*1263 FILLER_3_3
*1264 FILLER_3_36
*1265 FILLER_3_51
*1266 FILLER_3_55
*1267 FILLER_3_73
*1268 FILLER_3_80
*1269 FILLER_3_92
*1270 FILLER_40_105
*1271 FILLER_40_116
*1272 FILLER_40_128
*1273 FILLER_40_141
*1274 FILLER_40_15
*1275 FILLER_40_153
*1276 FILLER_40_165
*1277 FILLER_40_177
*1278 FILLER_40_189
*1279 FILLER_40_195
*1280 FILLER_40_197
*1281 FILLER_40_209
*1282 FILLER_40_221
*1283 FILLER_40_233
*1284 FILLER_40_245
*1285 FILLER_40_251
*1286 FILLER_40_253
*1287 FILLER_40_265
*1288 FILLER_40_27
*1289 FILLER_40_277
*1290 FILLER_40_289
*1291 FILLER_40_29
*1292 FILLER_40_297
*1293 FILLER_40_3
*1294 FILLER_40_41
*1295 FILLER_40_53
*1296 FILLER_40_65
*1297 FILLER_40_77
*1298 FILLER_40_83
*1299 FILLER_40_85
*1300 FILLER_40_97
*1301 FILLER_41_105
*1302 FILLER_41_111
*1303 FILLER_41_113
*1304 FILLER_41_12
*1305 FILLER_41_125
*1306 FILLER_41_137
*1307 FILLER_41_149
*1308 FILLER_41_161
*1309 FILLER_41_167
*1310 FILLER_41_169
*1311 FILLER_41_181
*1312 FILLER_41_19
*1313 FILLER_41_193
*1314 FILLER_41_205
*1315 FILLER_41_217
*1316 FILLER_41_223
*1317 FILLER_41_225
*1318 FILLER_41_237
*1319 FILLER_41_249
*1320 FILLER_41_261
*1321 FILLER_41_273
*1322 FILLER_41_279
*1323 FILLER_41_281
*1324 FILLER_41_293
*1325 FILLER_41_31
*1326 FILLER_41_43
*1327 FILLER_41_55
*1328 FILLER_41_57
*1329 FILLER_41_69
*1330 FILLER_41_81
*1331 FILLER_41_93
*1332 FILLER_42_101
*1333 FILLER_42_113
*1334 FILLER_42_12
*1335 FILLER_42_125
*1336 FILLER_42_137
*1337 FILLER_42_141
*1338 FILLER_42_153
*1339 FILLER_42_165
*1340 FILLER_42_177
*1341 FILLER_42_189
*1342 FILLER_42_195
*1343 FILLER_42_20
*1344 FILLER_42_206
*1345 FILLER_42_218
*1346 FILLER_42_230
*1347 FILLER_42_242
*1348 FILLER_42_250
*1349 FILLER_42_253
*1350 FILLER_42_261
*1351 FILLER_42_273
*1352 FILLER_42_285
*1353 FILLER_42_29
*1354 FILLER_42_297
*1355 FILLER_42_41
*1356 FILLER_42_53
*1357 FILLER_42_65
*1358 FILLER_42_77
*1359 FILLER_42_83
*1360 FILLER_42_89
*1361 FILLER_43_105
*1362 FILLER_43_111
*1363 FILLER_43_113
*1364 FILLER_43_125
*1365 FILLER_43_137
*1366 FILLER_43_149
*1367 FILLER_43_161
*1368 FILLER_43_167
*1369 FILLER_43_169
*1370 FILLER_43_181
*1371 FILLER_43_193
*1372 FILLER_43_205
*1373 FILLER_43_217
*1374 FILLER_43_22
*1375 FILLER_43_223
*1376 FILLER_43_225
*1377 FILLER_43_237
*1378 FILLER_43_249
*1379 FILLER_43_259
*1380 FILLER_43_271
*1381 FILLER_43_279
*1382 FILLER_43_281
*1383 FILLER_43_293
*1384 FILLER_43_3
*1385 FILLER_43_34
*1386 FILLER_43_46
*1387 FILLER_43_54
*1388 FILLER_43_57
*1389 FILLER_43_69
*1390 FILLER_43_81
*1391 FILLER_43_93
*1392 FILLER_44_10
*1393 FILLER_44_109
*1394 FILLER_44_117
*1395 FILLER_44_124
*1396 FILLER_44_136
*1397 FILLER_44_141
*1398 FILLER_44_153
*1399 FILLER_44_165
*1400 FILLER_44_177
*1401 FILLER_44_189
*1402 FILLER_44_19
*1403 FILLER_44_195
*1404 FILLER_44_197
*1405 FILLER_44_209
*1406 FILLER_44_221
*1407 FILLER_44_233
*1408 FILLER_44_245
*1409 FILLER_44_251
*1410 FILLER_44_253
*1411 FILLER_44_265
*1412 FILLER_44_27
*1413 FILLER_44_277
*1414 FILLER_44_289
*1415 FILLER_44_29
*1416 FILLER_44_297
*1417 FILLER_44_41
*1418 FILLER_44_53
*1419 FILLER_44_65
*1420 FILLER_44_77
*1421 FILLER_44_83
*1422 FILLER_44_85
*1423 FILLER_44_97
*1424 FILLER_45_105
*1425 FILLER_45_111
*1426 FILLER_45_113
*1427 FILLER_45_125
*1428 FILLER_45_137
*1429 FILLER_45_149
*1430 FILLER_45_161
*1431 FILLER_45_167
*1432 FILLER_45_169
*1433 FILLER_45_17
*1434 FILLER_45_181
*1435 FILLER_45_193
*1436 FILLER_45_205
*1437 FILLER_45_217
*1438 FILLER_45_223
*1439 FILLER_45_225
*1440 FILLER_45_23
*1441 FILLER_45_237
*1442 FILLER_45_249
*1443 FILLER_45_261
*1444 FILLER_45_27
*1445 FILLER_45_273
*1446 FILLER_45_279
*1447 FILLER_45_281
*1448 FILLER_45_293
*1449 FILLER_45_3
*1450 FILLER_45_35
*1451 FILLER_45_47
*1452 FILLER_45_55
*1453 FILLER_45_57
*1454 FILLER_45_69
*1455 FILLER_45_81
*1456 FILLER_45_9
*1457 FILLER_45_93
*1458 FILLER_46_10
*1459 FILLER_46_109
*1460 FILLER_46_121
*1461 FILLER_46_133
*1462 FILLER_46_139
*1463 FILLER_46_141
*1464 FILLER_46_153
*1465 FILLER_46_165
*1466 FILLER_46_177
*1467 FILLER_46_189
*1468 FILLER_46_195
*1469 FILLER_46_197
*1470 FILLER_46_20
*1471 FILLER_46_209
*1472 FILLER_46_221
*1473 FILLER_46_233
*1474 FILLER_46_245
*1475 FILLER_46_251
*1476 FILLER_46_253
*1477 FILLER_46_265
*1478 FILLER_46_277
*1479 FILLER_46_289
*1480 FILLER_46_29
*1481 FILLER_46_297
*1482 FILLER_46_3
*1483 FILLER_46_41
*1484 FILLER_46_53
*1485 FILLER_46_65
*1486 FILLER_46_77
*1487 FILLER_46_83
*1488 FILLER_46_85
*1489 FILLER_46_97
*1490 FILLER_47_108
*1491 FILLER_47_113
*1492 FILLER_47_125
*1493 FILLER_47_137
*1494 FILLER_47_149
*1495 FILLER_47_161
*1496 FILLER_47_167
*1497 FILLER_47_178
*1498 FILLER_47_190
*1499 FILLER_47_202
*1500 FILLER_47_21
*1501 FILLER_47_214
*1502 FILLER_47_222
*1503 FILLER_47_225
*1504 FILLER_47_237
*1505 FILLER_47_249
*1506 FILLER_47_261
*1507 FILLER_47_273
*1508 FILLER_47_279
*1509 FILLER_47_281
*1510 FILLER_47_293
*1511 FILLER_47_3
*1512 FILLER_47_33
*1513 FILLER_47_52
*1514 FILLER_47_57
*1515 FILLER_47_69
*1516 FILLER_47_84
*1517 FILLER_47_9
*1518 FILLER_47_96
*1519 FILLER_48_109
*1520 FILLER_48_121
*1521 FILLER_48_133
*1522 FILLER_48_139
*1523 FILLER_48_141
*1524 FILLER_48_15
*1525 FILLER_48_153
*1526 FILLER_48_161
*1527 FILLER_48_171
*1528 FILLER_48_183
*1529 FILLER_48_195
*1530 FILLER_48_197
*1531 FILLER_48_209
*1532 FILLER_48_221
*1533 FILLER_48_233
*1534 FILLER_48_245
*1535 FILLER_48_251
*1536 FILLER_48_253
*1537 FILLER_48_265
*1538 FILLER_48_27
*1539 FILLER_48_277
*1540 FILLER_48_289
*1541 FILLER_48_29
*1542 FILLER_48_297
*1543 FILLER_48_3
*1544 FILLER_48_41
*1545 FILLER_48_53
*1546 FILLER_48_65
*1547 FILLER_48_77
*1548 FILLER_48_83
*1549 FILLER_48_85
*1550 FILLER_48_97
*1551 FILLER_49_101
*1552 FILLER_49_109
*1553 FILLER_49_11
*1554 FILLER_49_113
*1555 FILLER_49_125
*1556 FILLER_49_137
*1557 FILLER_49_149
*1558 FILLER_49_161
*1559 FILLER_49_167
*1560 FILLER_49_169
*1561 FILLER_49_181
*1562 FILLER_49_193
*1563 FILLER_49_205
*1564 FILLER_49_217
*1565 FILLER_49_223
*1566 FILLER_49_225
*1567 FILLER_49_23
*1568 FILLER_49_237
*1569 FILLER_49_249
*1570 FILLER_49_261
*1571 FILLER_49_273
*1572 FILLER_49_279
*1573 FILLER_49_281
*1574 FILLER_49_293
*1575 FILLER_49_3
*1576 FILLER_49_35
*1577 FILLER_49_47
*1578 FILLER_49_52
*1579 FILLER_49_57
*1580 FILLER_49_65
*1581 FILLER_49_7
*1582 FILLER_49_77
*1583 FILLER_49_89
*1584 FILLER_4_109
*1585 FILLER_4_121
*1586 FILLER_4_133
*1587 FILLER_4_139
*1588 FILLER_4_146
*1589 FILLER_4_158
*1590 FILLER_4_170
*1591 FILLER_4_182
*1592 FILLER_4_194
*1593 FILLER_4_197
*1594 FILLER_4_209
*1595 FILLER_4_221
*1596 FILLER_4_233
*1597 FILLER_4_24
*1598 FILLER_4_245
*1599 FILLER_4_251
*1600 FILLER_4_253
*1601 FILLER_4_265
*1602 FILLER_4_277
*1603 FILLER_4_289
*1604 FILLER_4_29
*1605 FILLER_4_297
*1606 FILLER_4_3
*1607 FILLER_4_49
*1608 FILLER_4_53
*1609 FILLER_4_65
*1610 FILLER_4_7
*1611 FILLER_4_77
*1612 FILLER_4_83
*1613 FILLER_4_85
*1614 FILLER_4_97
*1615 FILLER_50_109
*1616 FILLER_50_121
*1617 FILLER_50_13