*SPEF "ieee 1481-1999"
*DESIGN "krasin_tt02_verilog_spi_7_channel_pwm_driver"
*DATE "11:11:11 Fri 11 11, 1111"
*VENDOR "OpenRCX"
*PROGRAM "Parallel Extraction"
*VERSION "1.0"
*DESIGN_FLOW "NAME_SCOPE LOCAL" "PIN_CAP NONE"
*DIVIDER /
*DELIMITER :
*BUS_DELIMITER []
*T_UNIT 1 NS
*C_UNIT 1 PF
*R_UNIT 1 OHM
*L_UNIT 1 HENRY

*NAME_MAP
*1 io_in[0]
*2 io_in[1]
*3 io_in[2]
*4 io_in[3]
*5 io_in[4]
*6 io_in[5]
*7 io_in[6]
*8 io_in[7]
*9 io_out[0]
*10 io_out[1]
*11 io_out[2]
*12 io_out[3]
*13 io_out[4]
*14 io_out[5]
*15 io_out[6]
*16 io_out[7]
*19 _000_
*20 _001_
*21 _002_
*22 _003_
*23 _004_
*24 _005_
*25 _006_
*26 _007_
*27 _008_
*28 _009_
*29 _010_
*30 _011_
*31 _012_
*32 _013_
*33 _014_
*34 _015_
*35 _016_
*36 _017_
*37 _018_
*38 _019_
*39 _020_
*40 _021_
*41 _022_
*42 _023_
*43 _024_
*44 _025_
*45 _026_
*46 _027_
*47 _028_
*48 _029_
*49 _030_
*50 _031_
*51 _032_
*52 _033_
*53 _034_
*54 _035_
*55 _036_
*56 _037_
*57 _038_
*58 _039_
*59 _040_
*60 _041_
*61 _042_
*62 _043_
*63 _044_
*64 _045_
*65 _046_
*66 _047_
*67 _048_
*68 _049_
*69 _050_
*70 _051_
*71 _052_
*72 _053_
*73 _054_
*74 _055_
*75 _056_
*76 _057_
*77 _058_
*78 _059_
*79 _060_
*80 _061_
*81 _062_
*82 _063_
*83 _064_
*84 _065_
*85 _066_
*86 _067_
*87 _068_
*88 _069_
*89 _070_
*90 _071_
*91 _072_
*92 _073_
*93 _074_
*94 _075_
*95 _076_
*96 _077_
*97 _078_
*98 _079_
*99 _080_
*100 _081_
*101 _082_
*102 _083_
*103 _084_
*104 _085_
*105 _086_
*106 _087_
*107 _088_
*108 _089_
*109 _090_
*110 _091_
*111 _092_
*112 _093_
*113 _094_
*114 _095_
*115 _096_
*116 _097_
*117 _098_
*118 _099_
*119 _100_
*120 _101_
*121 _102_
*122 _103_
*123 _104_
*124 _105_
*125 _106_
*126 _107_
*127 _108_
*128 _109_
*129 _110_
*130 _111_
*131 _112_
*132 _113_
*133 _114_
*134 _115_
*135 _116_
*136 _117_
*137 _118_
*138 _119_
*139 _120_
*140 _121_
*141 _122_
*142 _123_
*143 _124_
*144 _125_
*145 _126_
*146 _127_
*147 _128_
*148 _129_
*149 _130_
*150 _131_
*151 _132_
*152 _133_
*153 _134_
*154 _135_
*155 _136_
*156 _137_
*157 _138_
*158 _139_
*159 _140_
*160 _141_
*161 _142_
*162 _143_
*163 _144_
*164 _145_
*165 _146_
*166 _147_
*167 _148_
*168 _149_
*169 _150_
*170 _151_
*171 _152_
*172 _153_
*173 _154_
*174 _155_
*175 _156_
*176 _157_
*177 _158_
*178 _159_
*179 _160_
*180 _161_
*181 _162_
*182 _163_
*183 _164_
*184 _165_
*185 _166_
*186 _167_
*187 _168_
*188 _169_
*189 _170_
*190 _171_
*191 _172_
*192 _173_
*193 _174_
*194 _175_
*195 _176_
*196 _177_
*197 _178_
*198 _179_
*199 _180_
*200 _181_
*201 _182_
*202 _183_
*203 _184_
*204 _185_
*205 _186_
*206 _187_
*207 _188_
*208 _189_
*209 _190_
*210 _191_
*211 _192_
*212 _193_
*213 _194_
*214 _195_
*215 _196_
*216 _197_
*217 _198_
*218 _199_
*219 _200_
*220 _201_
*221 _202_
*222 _203_
*223 _204_
*224 _205_
*225 _206_
*226 _207_
*227 _208_
*228 _209_
*229 _210_
*230 _211_
*231 _212_
*232 _213_
*233 _214_
*234 _215_
*235 _216_
*236 _217_
*237 _218_
*238 _219_
*239 _220_
*240 _221_
*241 _222_
*242 _223_
*243 _224_
*244 _225_
*245 _226_
*246 _227_
*247 _228_
*248 _229_
*249 _230_
*250 _231_
*251 _232_
*252 _233_
*253 _234_
*254 _235_
*255 _236_
*256 _237_
*257 _238_
*258 _239_
*259 _240_
*260 _241_
*261 _242_
*262 _243_
*263 _244_
*264 _245_
*265 _246_
*266 _247_
*267 _248_
*268 _249_
*269 _250_
*270 _251_
*271 _252_
*272 _253_
*273 _254_
*274 _255_
*275 _256_
*276 _257_
*277 _258_
*278 _259_
*279 _260_
*280 _261_
*281 _262_
*282 _263_
*283 _264_
*284 _265_
*285 _266_
*286 _267_
*287 _268_
*288 _269_
*289 _270_
*290 _271_
*291 _272_
*292 _273_
*293 _274_
*294 _275_
*295 _276_
*296 _277_
*297 _278_
*298 _279_
*299 _280_
*300 _281_
*301 _282_
*302 _283_
*303 _284_
*304 _285_
*305 _286_
*306 _287_
*307 _288_
*308 _289_
*309 _290_
*310 _291_
*311 _292_
*312 _293_
*313 _294_
*314 _295_
*315 _296_
*316 _297_
*317 _298_
*318 _299_
*319 _300_
*320 _301_
*321 _302_
*322 _303_
*323 _304_
*324 _305_
*325 _306_
*326 _307_
*327 _308_
*328 _309_
*329 _310_
*330 _311_
*331 _312_
*332 _313_
*333 _314_
*334 _315_
*335 _316_
*336 _317_
*337 _318_
*338 _319_
*339 _320_
*340 _321_
*341 _322_
*342 _323_
*343 _324_
*344 _325_
*345 _326_
*346 _327_
*347 _328_
*348 _329_
*349 _330_
*350 _331_
*351 _332_
*352 _333_
*353 _334_
*354 _335_
*355 _336_
*356 _337_
*357 _338_
*358 _339_
*359 _340_
*360 _341_
*361 _342_
*362 _343_
*363 _344_
*364 _345_
*365 _346_
*366 _347_
*367 _348_
*368 _349_
*369 _350_
*370 _351_
*371 _352_
*372 _353_
*373 _354_
*374 _355_
*375 _356_
*376 _357_
*377 _358_
*378 _359_
*379 _360_
*380 _361_
*381 _362_
*382 _363_
*383 _364_
*384 _365_
*385 _366_
*386 _367_
*387 _368_
*388 _369_
*389 _370_
*390 _371_
*391 _372_
*392 _373_
*393 _374_
*394 _375_
*395 _376_
*396 _377_
*397 _378_
*398 _379_
*399 _380_
*400 _381_
*401 _382_
*402 _383_
*403 _384_
*404 _385_
*405 _386_
*406 _387_
*407 _388_
*408 _389_
*409 _390_
*410 _391_
*411 _392_
*412 _393_
*413 _394_
*414 _395_
*415 _396_
*416 _397_
*417 _398_
*418 _399_
*419 _400_
*420 _401_
*421 _402_
*422 _403_
*423 _404_
*424 _405_
*425 _406_
*426 _407_
*427 _408_
*428 _409_
*429 _410_
*430 _411_
*431 _412_
*432 _413_
*433 _414_
*434 _415_
*435 _416_
*436 clknet_0_io_in[0]
*437 clknet_3_0__leaf_io_in[0]
*438 clknet_3_1__leaf_io_in[0]
*439 clknet_3_2__leaf_io_in[0]
*440 clknet_3_3__leaf_io_in[0]
*441 clknet_3_4__leaf_io_in[0]
*442 clknet_3_5__leaf_io_in[0]
*443 clknet_3_6__leaf_io_in[0]
*444 clknet_3_7__leaf_io_in[0]
*445 counter\[0\]
*446 counter\[1\]
*447 counter\[2\]
*448 counter\[3\]
*449 counter\[4\]
*450 counter\[5\]
*451 counter\[6\]
*452 counter\[7\]
*453 cur_addr\[0\]
*454 cur_addr\[1\]
*455 cur_addr\[2\]
*456 in_buf\[0\]
*457 in_buf\[1\]
*458 in_buf\[2\]
*459 in_buf\[3\]
*460 in_buf\[4\]
*461 in_buf\[5\]
*462 in_buf\[6\]
*463 in_buf\[7\]
*464 is_on\$func\$\/work\/src\/pwm\.v\:53\$1\.\$result
*465 is_on\$func\$\/work\/src\/pwm\.v\:54\$2\.\$result
*466 is_on\$func\$\/work\/src\/pwm\.v\:55\$3\.\$result
*467 is_on\$func\$\/work\/src\/pwm\.v\:56\$4\.\$result
*468 is_on\$func\$\/work\/src\/pwm\.v\:57\$5\.\$result
*469 is_on\$func\$\/work\/src\/pwm\.v\:58\$6\.\$result
*470 is_on\$func\$\/work\/src\/pwm\.v\:59\$7\.\$result
*471 is_reading
*472 is_writing
*473 miso
*474 net1
*475 net2
*476 net3
*477 net4
*478 out_buf\[0\]
*479 out_buf\[1\]
*480 out_buf\[2\]
*481 out_buf\[3\]
*482 out_buf\[4\]
*483 out_buf\[5\]
*484 out_buf\[6\]
*485 prev_sclk
*486 pwm_level\[0\]\[0\]
*487 pwm_level\[0\]\[1\]
*488 pwm_level\[0\]\[2\]
*489 pwm_level\[0\]\[3\]
*490 pwm_level\[0\]\[4\]
*491 pwm_level\[0\]\[5\]
*492 pwm_level\[0\]\[6\]
*493 pwm_level\[0\]\[7\]
*494 pwm_level\[1\]\[0\]
*495 pwm_level\[1\]\[1\]
*496 pwm_level\[1\]\[2\]
*497 pwm_level\[1\]\[3\]
*498 pwm_level\[1\]\[4\]
*499 pwm_level\[1\]\[5\]
*500 pwm_level\[1\]\[6\]
*501 pwm_level\[1\]\[7\]
*502 pwm_level\[2\]\[0\]
*503 pwm_level\[2\]\[1\]
*504 pwm_level\[2\]\[2\]
*505 pwm_level\[2\]\[3\]
*506 pwm_level\[2\]\[4\]
*507 pwm_level\[2\]\[5\]
*508 pwm_level\[2\]\[6\]
*509 pwm_level\[2\]\[7\]
*510 pwm_level\[3\]\[0\]
*511 pwm_level\[3\]\[1\]
*512 pwm_level\[3\]\[2\]
*513 pwm_level\[3\]\[3\]
*514 pwm_level\[3\]\[4\]
*515 pwm_level\[3\]\[5\]
*516 pwm_level\[3\]\[6\]
*517 pwm_level\[3\]\[7\]
*518 pwm_level\[4\]\[0\]
*519 pwm_level\[4\]\[1\]
*520 pwm_level\[4\]\[2\]
*521 pwm_level\[4\]\[3\]
*522 pwm_level\[4\]\[4\]
*523 pwm_level\[4\]\[5\]
*524 pwm_level\[4\]\[6\]
*525 pwm_level\[4\]\[7\]
*526 pwm_level\[5\]\[0\]
*527 pwm_level\[5\]\[1\]
*528 pwm_level\[5\]\[2\]
*529 pwm_level\[5\]\[3\]
*530 pwm_level\[5\]\[4\]
*531 pwm_level\[5\]\[5\]
*532 pwm_level\[5\]\[6\]
*533 pwm_level\[5\]\[7\]
*534 pwm_level\[6\]\[0\]
*535 pwm_level\[6\]\[1\]
*536 pwm_level\[6\]\[2\]
*537 pwm_level\[6\]\[3\]
*538 pwm_level\[6\]\[4\]
*539 pwm_level\[6\]\[5\]
*540 pwm_level\[6\]\[6\]
*541 pwm_level\[6\]\[7\]
*542 spi_counter\[0\]
*543 spi_counter\[1\]
*544 spi_counter\[2\]
*545 ANTENNA_0
*546 ANTENNA_1
*547 ANTENNA_2
*548 ANTENNA_3
*549 ANTENNA_4
*550 ANTENNA_5
*551 FILLER_0_102
*552 FILLER_0_110
*553 FILLER_0_120
*554 FILLER_0_136
*555 FILLER_0_141
*556 FILLER_0_150
*557 FILLER_0_159
*558 FILLER_0_167
*559 FILLER_0_172
*560 FILLER_0_184
*561 FILLER_0_197
*562 FILLER_0_209
*563 FILLER_0_221
*564 FILLER_0_225
*565 FILLER_0_237
*566 FILLER_0_24
*567 FILLER_0_249
*568 FILLER_0_253
*569 FILLER_0_265
*570 FILLER_0_277
*571 FILLER_0_281
*572 FILLER_0_29
*573 FILLER_0_293
*574 FILLER_0_3
*575 FILLER_0_33
*576 FILLER_0_52
*577 FILLER_0_57
*578 FILLER_0_80
*579 FILLER_10_101
*580 FILLER_10_121
*581 FILLER_10_136
*582 FILLER_10_141
*583 FILLER_10_150
*584 FILLER_10_175
*585 FILLER_10_185
*586 FILLER_10_193
*587 FILLER_10_205
*588 FILLER_10_209
*589 FILLER_10_214
*590 FILLER_10_226
*591 FILLER_10_238
*592 FILLER_10_24
*593 FILLER_10_250
*594 FILLER_10_253
*595 FILLER_10_265
*596 FILLER_10_277
*597 FILLER_10_289
*598 FILLER_10_297
*599 FILLER_10_3
*600 FILLER_10_45
*601 FILLER_10_66
*602 FILLER_10_7
*603 FILLER_10_78
*604 FILLER_11_108
*605 FILLER_11_121
*606 FILLER_11_132
*607 FILLER_11_140
*608 FILLER_11_150
*609 FILLER_11_154
*610 FILLER_11_159
*611 FILLER_11_167
*612 FILLER_11_169
*613 FILLER_11_180
*614 FILLER_11_188
*615 FILLER_11_196
*616 FILLER_11_208
*617 FILLER_11_22
*618 FILLER_11_220
*619 FILLER_11_225
*620 FILLER_11_237
*621 FILLER_11_249
*622 FILLER_11_261
*623 FILLER_11_273
*624 FILLER_11_279
*625 FILLER_11_281
*626 FILLER_11_293
*627 FILLER_11_3
*628 FILLER_11_45
*629 FILLER_11_53
*630 FILLER_11_57
*631 FILLER_11_69
*632 FILLER_11_91
*633 FILLER_11_99
*634 FILLER_12_102
*635 FILLER_12_110
*636 FILLER_12_119
*637 FILLER_12_130
*638 FILLER_12_138
*639 FILLER_12_149
*640 FILLER_12_163
*641 FILLER_12_169
*642 FILLER_12_178
*643 FILLER_12_190
*644 FILLER_12_197
*645 FILLER_12_205
*646 FILLER_12_212
*647 FILLER_12_22
*648 FILLER_12_224
*649 FILLER_12_236
*650 FILLER_12_248
*651 FILLER_12_253
*652 FILLER_12_265
*653 FILLER_12_277
*654 FILLER_12_289
*655 FILLER_12_29
*656 FILLER_12_297
*657 FILLER_12_3
*658 FILLER_12_41
*659 FILLER_12_64
*660 FILLER_12_76
*661 FILLER_13_102
*662 FILLER_13_11
*663 FILLER_13_110
*664 FILLER_13_120
*665 FILLER_13_128
*666 FILLER_13_137
*667 FILLER_13_144
*668 FILLER_13_153
*669 FILLER_13_161
*670 FILLER_13_167
*671 FILLER_13_169
*672 FILLER_13_173
*673 FILLER_13_179
*674 FILLER_13_201
*675 FILLER_13_209
*676 FILLER_13_216
*677 FILLER_13_225
*678 FILLER_13_237
*679 FILLER_13_247
*680 FILLER_13_259
*681 FILLER_13_271
*682 FILLER_13_279
*683 FILLER_13_281
*684 FILLER_13_293
*685 FILLER_13_3
*686 FILLER_13_32
*687 FILLER_13_52
*688 FILLER_13_74
*689 FILLER_13_82
*690 FILLER_14_101
*691 FILLER_14_121
*692 FILLER_14_132
*693 FILLER_14_149
*694 FILLER_14_174
*695 FILLER_14_184
*696 FILLER_14_205
*697 FILLER_14_217
*698 FILLER_14_229
*699 FILLER_14_24
*700 FILLER_14_241
*701 FILLER_14_249
*702 FILLER_14_253
*703 FILLER_14_265
*704 FILLER_14_277
*705 FILLER_14_289
*706 FILLER_14_29
*707 FILLER_14_297
*708 FILLER_14_3
*709 FILLER_14_49
*710 FILLER_14_69
*711 FILLER_14_81
*712 FILLER_15_102
*713 FILLER_15_110
*714 FILLER_15_113
*715 FILLER_15_121
*716 FILLER_15_129
*717 FILLER_15_138
*718 FILLER_15_14
*719 FILLER_15_147
*720 FILLER_15_155
*721 FILLER_15_160
*722 FILLER_15_169
*723 FILLER_15_177
*724 FILLER_15_187
*725 FILLER_15_199
*726 FILLER_15_203
*727 FILLER_15_208
*728 FILLER_15_220
*729 FILLER_15_225
*730 FILLER_15_237
*731 FILLER_15_249
*732 FILLER_15_261
*733 FILLER_15_273
*734 FILLER_15_279
*735 FILLER_15_281
*736 FILLER_15_293
*737 FILLER_15_32
*738 FILLER_15_52
*739 FILLER_15_57
*740 FILLER_15_6
*741 FILLER_15_81
*742 FILLER_16_109
*743 FILLER_16_122
*744 FILLER_16_126
*745 FILLER_16_134
*746 FILLER_16_148
*747 FILLER_16_157
*748 FILLER_16_171
*749 FILLER_16_178
*750 FILLER_16_188
*751 FILLER_16_202
*752 FILLER_16_214
*753 FILLER_16_226
*754 FILLER_16_238
*755 FILLER_16_24
*756 FILLER_16_250
*757 FILLER_16_253
*758 FILLER_16_265
*759 FILLER_16_277
*760 FILLER_16_289
*761 FILLER_16_29
*762 FILLER_16_297
*763 FILLER_16_3
*764 FILLER_16_35
*765 FILLER_16_53
*766 FILLER_16_7
*767 FILLER_16_74
*768 FILLER_16_82
*769 FILLER_16_85
*770 FILLER_17_105
*771 FILLER_17_111
*772 FILLER_17_120
*773 FILLER_17_131
*774 FILLER_17_139
*775 FILLER_17_146
*776 FILLER_17_15
*777 FILLER_17_158
*778 FILLER_17_166
*779 FILLER_17_169
*780 FILLER_17_193
*781 FILLER_17_203
*782 FILLER_17_211
*783 FILLER_17_223
*784 FILLER_17_225
*785 FILLER_17_233
*786 FILLER_17_238
*787 FILLER_17_250
*788 FILLER_17_262
*789 FILLER_17_274
*790 FILLER_17_281
*791 FILLER_17_293
*792 FILLER_17_3
*793 FILLER_17_36
*794 FILLER_17_48
*795 FILLER_17_57
*796 FILLER_17_69
*797 FILLER_17_93
*798 FILLER_18_106
*799 FILLER_18_119
*800 FILLER_18_130
*801 FILLER_18_138
*802 FILLER_18_141
*803 FILLER_18_152
*804 FILLER_18_160
*805 FILLER_18_168
*806 FILLER_18_182
*807 FILLER_18_190
*808 FILLER_18_197
*809 FILLER_18_209
*810 FILLER_18_221
*811 FILLER_18_23
*812 FILLER_18_233
*813 FILLER_18_245
*814 FILLER_18_251
*815 FILLER_18_253
*816 FILLER_18_265
*817 FILLER_18_27
*818 FILLER_18_277
*819 FILLER_18_289
*820 FILLER_18_29
*821 FILLER_18_297
*822 FILLER_18_3
*823 FILLER_18_33
*824 FILLER_18_51
*825 FILLER_18_72
*826 FILLER_18_85
*827 FILLER_19_105
*828 FILLER_19_111
*829 FILLER_19_113
*830 FILLER_19_121
*831 FILLER_19_130
*832 FILLER_19_134
*833 FILLER_19_143
*834 FILLER_19_15
*835 FILLER_19_152
*836 FILLER_19_164
*837 FILLER_19_169
*838 FILLER_19_177
*839 FILLER_19_189
*840 FILLER_19_195
*841 FILLER_19_201
*842 FILLER_19_21
*843 FILLER_19_213
*844 FILLER_19_221
*845 FILLER_19_225
*846 FILLER_19_237
*847 FILLER_19_249
*848 FILLER_19_261
*849 FILLER_19_273
*850 FILLER_19_279
*851 FILLER_19_281
*852 FILLER_19_293
*853 FILLER_19_3
*854 FILLER_19_39
*855 FILLER_19_51
*856 FILLER_19_55
*857 FILLER_19_57
*858 FILLER_19_85
*859 FILLER_1_108
*860 FILLER_1_11
*861 FILLER_1_129
*862 FILLER_1_140
*863 FILLER_1_144
*864 FILLER_1_152
*865 FILLER_1_160
*866 FILLER_1_174
*867 FILLER_1_183
*868 FILLER_1_198
*869 FILLER_1_206
*870 FILLER_1_215
*871 FILLER_1_223
*872 FILLER_1_230
*873 FILLER_1_246
*874 FILLER_1_258
*875 FILLER_1_270
*876 FILLER_1_278
*877 FILLER_1_281
*878 FILLER_1_293
*879 FILLER_1_3
*880 FILLER_1_31
*881 FILLER_1_52
*882 FILLER_1_57
*883 FILLER_1_69
*884 FILLER_1_90
*885 FILLER_1_98
*886 FILLER_20_101
*887 FILLER_20_109
*888 FILLER_20_117
*889 FILLER_20_130
*890 FILLER_20_138
*891 FILLER_20_141
*892 FILLER_20_154
*893 FILLER_20_166
*894 FILLER_20_175
*895 FILLER_20_181
*896 FILLER_20_192
*897 FILLER_20_197
*898 FILLER_20_20
*899 FILLER_20_207
*900 FILLER_20_213
*901 FILLER_20_221
*902 FILLER_20_233
*903 FILLER_20_245
*904 FILLER_20_251
*905 FILLER_20_253
*906 FILLER_20_265
*907 FILLER_20_277
*908 FILLER_20_289
*909 FILLER_20_29
*910 FILLER_20_297
*911 FILLER_20_37
*912 FILLER_20_55
*913 FILLER_20_63
*914 FILLER_20_80
*915 FILLER_21_105
*916 FILLER_21_111
*917 FILLER_21_119
*918 FILLER_21_130
*919 FILLER_21_138
*920 FILLER_21_15
*921 FILLER_21_151
*922 FILLER_21_163
*923 FILLER_21_167
*924 FILLER_21_178
*925 FILLER_21_187
*926 FILLER_21_203
*927 FILLER_21_211
*928 FILLER_21_223
*929 FILLER_21_225
*930 FILLER_21_237
*931 FILLER_21_249
*932 FILLER_21_261
*933 FILLER_21_273
*934 FILLER_21_279
*935 FILLER_21_281
*936 FILLER_21_293
*937 FILLER_21_3
*938 FILLER_21_36
*939 FILLER_21_48
*940 FILLER_21_57
*941 FILLER_21_69
*942 FILLER_21_93
*943 FILLER_22_103
*944 FILLER_22_114
*945 FILLER_22_126
*946 FILLER_22_136
*947 FILLER_22_141
*948 FILLER_22_168
*949 FILLER_22_176
*950 FILLER_22_186
*951 FILLER_22_194
*952 FILLER_22_197
*953 FILLER_22_20
*954 FILLER_22_205
*955 FILLER_22_213
*956 FILLER_22_220
*957 FILLER_22_232
*958 FILLER_22_244
*959 FILLER_22_253
*960 FILLER_22_265
*961 FILLER_22_277
*962 FILLER_22_289
*963 FILLER_22_297
*964 FILLER_22_45
*965 FILLER_22_57
*966 FILLER_22_69
*967 FILLER_22_81
*968 FILLER_22_85
*969 FILLER_23_101
*970 FILLER_23_109
*971 FILLER_23_113
*972 FILLER_23_121
*973 FILLER_23_136
*974 FILLER_23_148
*975 FILLER_23_15
*976 FILLER_23_161
*977 FILLER_23_167
*978 FILLER_23_169
*979 FILLER_23_192
*980 FILLER_23_202
*981 FILLER_23_210
*982 FILLER_23_222
*983 FILLER_23_225
*984 FILLER_23_23
*985 FILLER_23_233
*986 FILLER_23_239
*987 FILLER_23_251
*988 FILLER_23_263
*989 FILLER_23_275
*990 FILLER_23_279
*991 FILLER_23_281
*992 FILLER_23_293
*993 FILLER_23_3
*994 FILLER_23_40
*995 FILLER_23_52
*996 FILLER_23_73
*997 FILLER_23_77
*998 FILLER_23_89
*999 FILLER_24_101
*1000 FILLER_24_105
*1001 FILLER_24_110
*1002 FILLER_24_123
*1003 FILLER_24_127
*1004 FILLER_24_136
*1005 FILLER_24_144
*1006 FILLER_24_156
*1007 FILLER_24_168
*1008 FILLER_24_173
*1009 FILLER_24_181
*1010 FILLER_24_193
*1011 FILLER_24_20
*1012 FILLER_24_203
*1013 FILLER_24_207
*1014 FILLER_24_214
*1015 FILLER_24_226
*1016 FILLER_24_238
*1017 FILLER_24_250
*1018 FILLER_24_253
*1019 FILLER_24_265
*1020 FILLER_24_271
*1021 FILLER_24_283
*1022 FILLER_24_29
*1023 FILLER_24_295
*1024 FILLER_24_41
*1025 FILLER_24_60
*1026 FILLER_24_64
*1027 FILLER_24_74
*1028 FILLER_24_82
*1029 FILLER_25_10
*1030 FILLER_25_109
*1031 FILLER_25_117
*1032 FILLER_25_121
*1033 FILLER_25_130
*1034 FILLER_25_134
*1035 FILLER_25_14
*1036 FILLER_25_144
*1037 FILLER_25_156
*1038 FILLER_25_178
*1039 FILLER_25_189
*1040 FILLER_25_193
*1041 FILLER_25_202
*1042 FILLER_25_210
*1043 FILLER_25_219
*1044 FILLER_25_223
*1045 FILLER_25_225
*1046 FILLER_25_237
*1047 FILLER_25_249
*1048 FILLER_25_261
*1049 FILLER_25_273
*1050 FILLER_25_279
*1051 FILLER_25_281
*1052 FILLER_25_293
*1053 FILLER_25_3
*1054 FILLER_25_31
*1055 FILLER_25_38
*1056 FILLER_25_50
*1057 FILLER_25_57
*1058 FILLER_25_76
*1059 FILLER_25_80
*1060 FILLER_25_97
*1061 FILLER_26_101
*1062 FILLER_26_114
*1063 FILLER_26_122
*1064 FILLER_26_130
*1065 FILLER_26_138
*1066 FILLER_26_151
*1067 FILLER_26_16
*1068 FILLER_26_160
*1069 FILLER_26_172
*1070 FILLER_26_187
*1071 FILLER_26_195
*1072 FILLER_26_197
*1073 FILLER_26_205
*1074 FILLER_26_217
*1075 FILLER_26_229
*1076 FILLER_26_241
*1077 FILLER_26_249
*1078 FILLER_26_253
*1079 FILLER_26_265
*1080 FILLER_26_277
*1081 FILLER_26_289
*1082 FILLER_26_297
*1083 FILLER_26_3
*1084 FILLER_26_46
*1085 FILLER_26_54
*1086 FILLER_26_73
*1087 FILLER_26_81
*1088 FILLER_26_9
*1089 FILLER_27_102
*1090 FILLER_27_110
*1091 FILLER_27_121
*1092 FILLER_27_132
*1093 FILLER_27_138
*1094 FILLER_27_145
*1095 FILLER_27_151
*1096 FILLER_27_159
*1097 FILLER_27_167
*1098 FILLER_27_177
*1099 FILLER_27_183
*1100 FILLER_27_187
*1101 FILLER_27_20
*1102 FILLER_27_210
*1103 FILLER_27_214
*1104 FILLER_27_222
*1105 FILLER_27_225
*1106 FILLER_27_237
*1107 FILLER_27_24
*1108 FILLER_27_242
*1109 FILLER_27_254
*1110 FILLER_27_266
*1111 FILLER_27_278
*1112 FILLER_27_281
*1113 FILLER_27_293
*1114 FILLER_27_32
*1115 FILLER_27_39
*1116 FILLER_27_52
*1117 FILLER_27_64
*1118 FILLER_27_84
*1119 FILLER_27_93
*1120 FILLER_28_109
*1121 FILLER_28_122
*1122 FILLER_28_132
*1123 FILLER_28_141
*1124 FILLER_28_153
*1125 FILLER_28_160
*1126 FILLER_28_172
*1127 FILLER_28_176
*1128 FILLER_28_187
*1129 FILLER_28_195
*1130 FILLER_28_197
*1131 FILLER_28_20
*1132 FILLER_28_205
*1133 FILLER_28_212
*1134 FILLER_28_216
*1135 FILLER_28_221
*1136 FILLER_28_233
*1137 FILLER_28_245
*1138 FILLER_28_251
*1139 FILLER_28_253
*1140 FILLER_28_265
*1141 FILLER_28_277
*1142 FILLER_28_289
*1143 FILLER_28_297
*1144 FILLER_28_3
*1145 FILLER_28_46
*1146 FILLER_28_54
*1147 FILLER_28_62
*1148 FILLER_28_78
*1149 FILLER_28_9
*1150 FILLER_28_93
*1151 FILLER_28_99
*1152 FILLER_29_102
*1153 FILLER_29_110
*1154 FILLER_29_113
*1155 FILLER_29_125
*1156 FILLER_29_137
*1157 FILLER_29_151
*1158 FILLER_29_162
*1159 FILLER_29_175
*1160 FILLER_29_185
*1161 FILLER_29_197
*1162 FILLER_29_209
*1163 FILLER_29_221
*1164 FILLER_29_225
*1165 FILLER_29_23
*1166 FILLER_29_237
*1167 FILLER_29_249
*1168 FILLER_29_261
*1169 FILLER_29_273
*1170 FILLER_29_279
*1171 FILLER_29_281
*1172 FILLER_29_293
*1173 FILLER_29_3
*1174 FILLER_29_40
*1175 FILLER_29_46
*1176 FILLER_29_52
*1177 FILLER_29_57
*1178 FILLER_29_68
*1179 FILLER_29_76
*1180 FILLER_29_82
*1181 FILLER_29_94
*1182 FILLER_2_105
*1183 FILLER_2_125
*1184 FILLER_2_136
*1185 FILLER_2_141
*1186 FILLER_2_157
*1187 FILLER_2_165
*1188 FILLER_2_174
*1189 FILLER_2_186
*1190 FILLER_2_194
*1191 FILLER_2_197
*1192 FILLER_2_210
*1193 FILLER_2_222
*1194 FILLER_2_234
*1195 FILLER_2_24
*1196 FILLER_2_246
*1197 FILLER_2_253
*1198 FILLER_2_265
*1199 FILLER_2_277
*1200 FILLER_2_289
*1201 FILLER_2_29
*1202 FILLER_2_297
*1203 FILLER_2_3
*1204 FILLER_2_43
*1205 FILLER_2_62
*1206 FILLER_2_74
*1207 FILLER_2_80
*1208 FILLER_2_85
*1209 FILLER_30_103
*1210 FILLER_30_109
*1211 FILLER_30_120
*1212 FILLER_30_13
*1213 FILLER_30_136
*1214 FILLER_30_147
*1215 FILLER_30_163
*1216 FILLER_30_174
*1217 FILLER_30_182
*1218 FILLER_30_194
*1219 FILLER_30_197
*1220 FILLER_30_209
*1221 FILLER_30_213
*1222 FILLER_30_221
*1223 FILLER_30_233
*1224 FILLER_30_24
*1225 FILLER_30_245
*1226 FILLER_30_251
*1227 FILLER_30_253
*1228 FILLER_30_265
*1229 FILLER_30_277
*1230 FILLER_30_289
*1231 FILLER_30_29
*1232 FILLER_30_297
*1233 FILLER_30_3
*1234 FILLER_30_40
*1235 FILLER_30_44
*1236 FILLER_30_54
*1237 FILLER_30_58
*1238 FILLER_30_66
*1239 FILLER_30_79
*1240 FILLER_30_83
*1241 FILLER_30_95
*1242 FILLER_31_108
*1243 FILLER_31_113
*1244 FILLER_31_121
*1245 FILLER_31_133
*1246 FILLER_31_14
*1247 FILLER_31_141
*1248 FILLER_31_150
*1249 FILLER_31_162
*1250 FILLER_31_169
*1251 FILLER_31_181
*1252 FILLER_31_193
*1253 FILLER_31_205
*1254 FILLER_31_211
*1255 FILLER_31_216
*1256 FILLER_31_225
*1257 FILLER_31_23
*1258 FILLER_31_237
*1259 FILLER_31_249
*1260 FILLER_31_261
*1261 FILLER_31_273
*1262 FILLER_31_279
*1263 FILLER_31_281
*1264 FILLER_31_293
*1265 FILLER_31_3
*1266 FILLER_31_37
*1267 FILLER_31_48
*1268 FILLER_31_62
*1269 FILLER_31_69
*1270 FILLER_31_80
*1271 FILLER_31_88
*1272 FILLER_31_97
*1273 FILLER_32_104
*1274 FILLER_32_116
*1275 FILLER_32_128
*1276 FILLER_32_135
*1277 FILLER_32_139
*1278 FILLER_32_148
*1279 FILLER_32_15
*1280 FILLER_32_160
*1281 FILLER_32_172
*1282 FILLER_32_184
*1283 FILLER_32_197
*1284 FILLER_32_209
*1285 FILLER_32_221
*1286 FILLER_32_233
*1287 FILLER_32_24
*1288 FILLER_32_245
*1289 FILLER_32_251
*1290 FILLER_32_253
*1291 FILLER_32_265
*1292 FILLER_32_277
*1293 FILLER_32_289
*1294 FILLER_32_297
*1295 FILLER_32_33
*1296 FILLER_32_41
*1297 FILLER_32_46
*1298 FILLER_32_56
*1299 FILLER_32_7
*1300 FILLER_32_72
*1301 FILLER_32_80
*1302 FILLER_32_85
*1303 FILLER_32_89
*1304 FILLER_32_97
*1305 FILLER_33_107
*1306 FILLER_33_11
*1307 FILLER_33_111
*1308 FILLER_33_116
*1309 FILLER_33_127
*1310 FILLER_33_145
*1311 FILLER_33_155
*1312 FILLER_33_167
*1313 FILLER_33_172
*1314 FILLER_33_184
*1315 FILLER_33_196
*1316 FILLER_33_208
*1317 FILLER_33_220
*1318 FILLER_33_225
*1319 FILLER_33_237
*1320 FILLER_33_249
*1321 FILLER_33_26
*1322 FILLER_33_261
*1323 FILLER_33_273
*1324 FILLER_33_279
*1325 FILLER_33_281
*1326 FILLER_33_293
*1327 FILLER_33_3
*1328 FILLER_33_34
*1329 FILLER_33_42
*1330 FILLER_33_52
*1331 FILLER_33_64
*1332 FILLER_33_72
*1333 FILLER_33_83
*1334 FILLER_33_96
*1335 FILLER_34_10
*1336 FILLER_34_104
*1337 FILLER_34_116
*1338 FILLER_34_122
*1339 FILLER_34_126
*1340 FILLER_34_130
*1341 FILLER_34_135
*1342 FILLER_34_139
*1343 FILLER_34_148
*1344 FILLER_34_154
*1345 FILLER_34_161
*1346 FILLER_34_169
*1347 FILLER_34_177
*1348 FILLER_34_187
*1349 FILLER_34_195
*1350 FILLER_34_197
*1351 FILLER_34_205
*1352 FILLER_34_21
*1353 FILLER_34_217
*1354 FILLER_34_229
*1355 FILLER_34_241
*1356 FILLER_34_249
*1357 FILLER_34_253
*1358 FILLER_34_265
*1359 FILLER_34_27
*1360 FILLER_34_277
*1361 FILLER_34_289
*1362 FILLER_34_297
*1363 FILLER_34_3
*1364 FILLER_34_36
*1365 FILLER_34_43
*1366 FILLER_34_59
*1367 FILLER_34_70
*1368 FILLER_34_80
*1369 FILLER_34_85
*1370 FILLER_34_91
*1371 FILLER_35_102
*1372 FILLER_35_110
*1373 FILLER_35_119
*1374 FILLER_35_127
*1375 FILLER_35_137
*1376 FILLER_35_148
*1377 FILLER_35_156
*1378 FILLER_35_169
*1379 FILLER_35_17
*1380 FILLER_35_181
*1381 FILLER_35_193
*1382 FILLER_35_201
*1383 FILLER_35_213
*1384 FILLER_35_221
*1385 FILLER_35_225
*1386 FILLER_35_237
*1387 FILLER_35_249
*1388 FILLER_35_261
*1389 FILLER_35_273
*1390 FILLER_35_279
*1391 FILLER_35_28
*1392 FILLER_35_281
*1393 FILLER_35_293
*1394 FILLER_35_42
*1395 FILLER_35_50
*1396 FILLER_35_60
*1397 FILLER_35_77
*1398 FILLER_35_9
*1399 FILLER_36_100
*1400 FILLER_36_115
*1401 FILLER_36_127
*1402 FILLER_36_133
*1403 FILLER_36_139
*1404 FILLER_36_141
*1405 FILLER_36_145
*1406 FILLER_36_15
*1407 FILLER_36_155
*1408 FILLER_36_159
*1409 FILLER_36_168
*1410 FILLER_36_180
*1411 FILLER_36_19
*1412 FILLER_36_192
*1413 FILLER_36_197
*1414 FILLER_36_209
*1415 FILLER_36_221
*1416 FILLER_36_23
*1417 FILLER_36_233
*1418 FILLER_36_245
*1419 FILLER_36_251
*1420 FILLER_36_253
*1421 FILLER_36_265
*1422 FILLER_36_27
*1423 FILLER_36_277
*1424 FILLER_36_289
*1425 FILLER_36_297
*1426 FILLER_36_3
*1427 FILLER_36_32
*1428 FILLER_36_38
*1429 FILLER_36_47
*1430 FILLER_36_55
*1431 FILLER_36_66
*1432 FILLER_36_72
*1433 FILLER_36_77
*1434 FILLER_36_83
*1435 FILLER_36_85
*1436 FILLER_37_108
*1437 FILLER_37_11
*1438 FILLER_37_113
*1439 FILLER_37_123
*1440 FILLER_37_131
*1441 FILLER_37_139
*1442 FILLER_37_146
*1443 FILLER_37_162
*1444 FILLER_37_169
*1445 FILLER_37_181
*1446 FILLER_37_193
*1447 FILLER_37_205
*1448 FILLER_37_217
*1449 FILLER_37_22
*1450 FILLER_37_223
*1451 FILLER_37_225
*1452 FILLER_37_237
*1453 FILLER_37_249
*1454 FILLER_37_261
*1455 FILLER_37_273
*1456 FILLER_37_279
*1457 FILLER_37_28
*1458 FILLER_37_281
*1459 FILLER_37_293
*1460 FILLER_37_3
*1461 FILLER_37_36
*1462 FILLER_37_44
*1463 FILLER_37_52
*1464 FILLER_37_57
*1465 FILLER_37_67
*1466 FILLER_37_7
*1467 FILLER_37_78
*1468 FILLER_37_86
*1469 FILLER_37_90
*1470 FILLER_37_99
*1471 FILLER_38_102
*1472 FILLER_38_114
*1473 FILLER_38_133
*1474 FILLER_38_139
*1475 FILLER_38_147
*1476 FILLER_38_15
*1477 FILLER_38_159
*1478 FILLER_38_171
*1479 FILLER_38_183
*1480 FILLER_38_19
*1481 FILLER_38_195
*1482 FILLER_38_197
*1483 FILLER_38_209
*1484 FILLER_38_221
*1485 FILLER_38_23
*1486 FILLER_38_233
*1487 FILLER_38_245
*1488 FILLER_38_251
*1489 FILLER_38_253
*1490 FILLER_38_265
*1491 FILLER_38_27
*1492 FILLER_38_277
*1493 FILLER_38_289
*1494 FILLER_38_297
*1495 FILLER_38_3
*1496 FILLER_38_32
*1497 FILLER_38_44
*1498 FILLER_38_56
*1499 FILLER_38_68
*1500 FILLER_38_72
*1501 FILLER_38_80
*1502 FILLER_38_93
*1503 FILLER_39_107
*1504 FILLER_39_111
*1505 FILLER_39_119
*1506 FILLER_39_12
*1507 FILLER_39_129
*1508 FILLER_39_141
*1509 FILLER_39_157
*1510 FILLER_39_165
*1511 FILLER_39_169
*1512 FILLER_39_181
*1513 FILLER_39_193
*1514 FILLER_39_205
*1515 FILLER_39_217
*1516 FILLER_39_223
*1517 FILLER_39_225
*1518 FILLER_39_237
*1519 FILLER_39_24
*1520 FILLER_39_249
*1521 FILLER_39_261
*1522 FILLER_39_273
*1523 FILLER_39_279
*1524 FILLER_39_281
*1525 FILLER_39_293
*1526 FILLER_39_3
*1527 FILLER_39_32
*1528 FILLER_39_39
*1529 FILLER_39_43
*1530 FILLER_39_51
*1531 FILLER_39_55
*1532 FILLER_39_60
*1533 FILLER_39_68
*1534 FILLER_39_76
*1535 FILLER_39_88
*1536 FILLER_39_97
*1537 FILLER_3_108
*1538 FILLER_3_113
*1539 FILLER_3_126
*1540 FILLER_3_137
*1541 FILLER_3_148
*1542 FILLER_3_15
*1543 FILLER_3_164
*1544 FILLER_3_179
*1545 FILLER_3_190
*1546 FILLER_3_198
*1547 FILLER_3_210
*1548 FILLER_3_222
*1549 FILLER_3_225
*1550 FILLER_3_237
*1551 FILLER_3_249
*1552 FILLER_3_261
*1553 FILLER_3_273
*1554 FILLER_3_279
*1555 FILLER_3_281
*1556 FILLER_3_293
*1557 FILLER_3_3
*1558 FILLER_3_36
*1559 FILLER_3_48
*1560 FILLER_3_57
*1561 FILLER_3_69
*1562 FILLER_3_93
*1563 FILLER_40_106
*1564 FILLER_40_117
*1565 FILLER_40_129
*1566 FILLER_40_135
*1567 FILLER_40_139
*1568 FILLER_40_141
*1569 FILLER_40_147
*1570 FILLER_40_15
*1571 FILLER_40_158
*1572 FILLER_40_170
*1573 FILLER_40_182
*1574 FILLER_40_194
*1575 FILLER_40_197
*1576 FILLER_40_209
*1577 FILLER_40_221
*1578 FILLER_40_233
*1579 FILLER_40_24
*1580 FILLER_40_245
*1581 FILLER_40_251
*1582 FILLER_40_253
*1583 FILLER_40_265
*1584 FILLER_40_277
*1585 FILLER_40_289
*1586 FILLER_40_29
*1587 FILLER_40_297
*1588 FILLER_40_3
*1589 FILLER_40_36
*1590 FILLER_40_47
*1591 FILLER_40_53
*1592 FILLER_40_62
*1593 FILLER_40_70
*1594 FILLER_40_80
*1595 FILLER_40_85
*1596 FILLER_40_93
*1597 FILLER_41_106
*1598 FILLER_41_11
*1599 FILLER_41_113
*1600 FILLER_41_119
*1601 FILLER_41_127
*1602 FILLER_41_135
*1603 FILLER_41_146
*1604 FILLER_41_154
*1605 FILLER_41_16
*1606 FILLER_41_164
*1607 FILLER_41_169
*1608 FILLER_41_181
*1609 FILLER_41_193
*1610 FILLER_41_205
*1611 FILLER_41_217
*1612 FILLER_41_223
*1613 FILLER_41_225
*1614 FILLER_41_237
*1615 FILLER_41_249
*1616 FILLER_41_261
*1617 FILLER_41_273
*1618 FILLER_41_279
*1619 FILLER_41_28
*1620 FILLER_41_281
*1621 FILLER_41_293
*1622 FILLER_41_3
*1623 FILLER_41_32
*1624 FILLER_41_39
*1625 FILLER_41_43
*1626 FILLER_41_52
*1627 FILLER_41_57
*1628 FILLER_41_61
*1629 FILLER_41_72
*1630 FILLER_41_82
*1631 FILLER_41_95
*1632 FILLER_42_101
*1633 FILLER_42_105
*1634 FILLER_42_117
*1635 FILLER_42_129
*1636 FILLER_42_137
*1637 FILLER_42_146
*1638 FILLER_42_15
*1639 FILLER_42_158
*1640 FILLER_42_170
*1641 FILLER_42_182
*1642 FILLER_42_194
*1643 FILLER_42_197
*1644 FILLER_42_209
*1645 FILLER_42_221
*1646 FILLER_42_233
*1647 FILLER_42_245
*1648 FILLER_42_251
*1649 FILLER_42_253
*1650 FILLER_42_265
*1651 FILLER_42_27
*1652 FILLER_42_277
*1653 FILLER_42_289
*1654 FILLER_42_29
*1655 FILLER_42_297
*1656 FILLER_42_3
*1657 FILLER_42_36
*1658 FILLER_42_48
*1659 FILLER_42_60
*1660 FILLER_42_72
*1661 FILLER_42_80
*1662 FILLER_42_85
*1663 FILLER_42_93
*1664 FILLER_43_107
*1665 FILLER_43_111
*1666 FILLER_43_113
*1667 FILLER_43_122
*1668 FILLER_43_137
*1669 FILLER_43_141
*1670 FILLER_43_149
*1671 FILLER_43_15
*1672 FILLER_43_157
*1673 FILLER_43_165
*1674 FILLER_43_169
*1675 FILLER_43_181
*1676 FILLER_43_193
*1677 FILLER_43_205
*1678 FILLER_43_217
*1679 FILLER_43_22
*1680 FILLER_43_223
*1681 FILLER_43_225
*1682 FILLER_43_237
*1683 FILLER_43_249
*1684 FILLER_43_261
*1685 FILLER_43_273
*1686 FILLER_43_279
*1687 FILLER_43_281
*1688 FILLER_43_293
*1689 FILLER_43_3
*1690 FILLER_43_34
*1691 FILLER_43_46
*1692 FILLER_43_54
*1693 FILLER_43_57
*1694 FILLER_43_69
*1695 FILLER_43_77
*1696 FILLER_43_81
*1697 FILLER_43_89
*1698 FILLER_43_97
*1699 FILLER_44_103
*1700 FILLER_44_114
*1701 FILLER_44_122
*1702 FILLER_44_131
*1703 FILLER_44_139
*1704 FILLER_44_14
*1705 FILLER_44_141
*1706 FILLER_44_149