*SPEF "ieee 1481-1999"
*DESIGN "logisim_demo"
*DATE "11:11:11 Fri 11 11, 1111"
*VENDOR "OpenRCX"
*PROGRAM "Parallel Extraction"
*VERSION "1.0"
*DESIGN_FLOW "NAME_SCOPE LOCAL" "PIN_CAP NONE"
*DIVIDER /
*DELIMITER :
*BUS_DELIMITER []
*T_UNIT 1 NS
*C_UNIT 1 PF
*R_UNIT 1 OHM
*L_UNIT 1 HENRY

*NAME_MAP
*1 io_in[0]
*2 io_in[1]
*3 io_in[2]
*4 io_in[3]
*5 io_in[4]
*6 io_in[5]
*7 io_in[6]
*8 io_in[7]
*9 io_out[0]
*10 io_out[1]
*11 io_out[2]
*12 io_out[3]
*13 io_out[4]
*14 io_out[5]
*15 io_out[6]
*16 io_out[7]
*19 CIRCUIT_0\.A
*20 CIRCUIT_0\.B
*21 CIRCUIT_0\.C
*22 CIRCUIT_0\.F
*23 CIRCUIT_0\.G
*24 CIRCUIT_0\.MEMORY_1\.s_currentState
*25 CIRCUIT_0\.MEMORY_12\.d
*26 CIRCUIT_0\.MEMORY_12\.s_currentState
*27 CIRCUIT_0\.MEMORY_2\.s_currentState
*28 CIRCUIT_0\.MEMORY_3\.s_currentState
*29 CIRCUIT_0\.MEMORY_4\.s_currentState
*30 _00_
*31 _01_
*32 _02_
*33 _03_
*34 _04_
*35 _05_
*36 _06_
*37 _07_
*38 _08_
*39 _09_
*40 clknet_0_io_in[0]
*41 clknet_1_0__leaf_io_in[0]
*42 clknet_1_1__leaf_io_in[0]
*43 net1
*44 net2
*45 FILLER_0_109
*46 FILLER_0_113
*47 FILLER_0_125
*48 FILLER_0_137
*49 FILLER_0_141
*50 FILLER_0_153
*51 FILLER_0_165
*52 FILLER_0_169
*53 FILLER_0_181
*54 FILLER_0_193
*55 FILLER_0_197
*56 FILLER_0_209
*57 FILLER_0_221
*58 FILLER_0_225
*59 FILLER_0_237
*60 FILLER_0_24
*61 FILLER_0_249
*62 FILLER_0_253
*63 FILLER_0_265
*64 FILLER_0_277
*65 FILLER_0_281
*66 FILLER_0_29
*67 FILLER_0_293
*68 FILLER_0_52
*69 FILLER_0_57
*70 FILLER_0_69
*71 FILLER_0_81
*72 FILLER_0_85
*73 FILLER_0_97
*74 FILLER_10_109
*75 FILLER_10_121
*76 FILLER_10_133
*77 FILLER_10_139
*78 FILLER_10_141
*79 FILLER_10_15
*80 FILLER_10_153
*81 FILLER_10_165
*82 FILLER_10_177
*83 FILLER_10_189
*84 FILLER_10_195
*85 FILLER_10_197
*86 FILLER_10_209
*87 FILLER_10_221
*88 FILLER_10_233
*89 FILLER_10_245
*90 FILLER_10_251
*91 FILLER_10_253
*92 FILLER_10_265
*93 FILLER_10_27
*94 FILLER_10_277
*95 FILLER_10_289
*96 FILLER_10_29
*97 FILLER_10_297
*98 FILLER_10_3
*99 FILLER_10_41
*100 FILLER_10_53
*101 FILLER_10_65
*102 FILLER_10_77
*103 FILLER_10_83
*104 FILLER_10_85
*105 FILLER_10_97
*106 FILLER_11_105
*107 FILLER_11_111
*108 FILLER_11_113
*109 FILLER_11_125
*110 FILLER_11_137
*111 FILLER_11_149
*112 FILLER_11_15
*113 FILLER_11_161
*114 FILLER_11_167
*115 FILLER_11_169
*116 FILLER_11_181
*117 FILLER_11_193
*118 FILLER_11_205
*119 FILLER_11_217
*120 FILLER_11_223
*121 FILLER_11_225
*122 FILLER_11_237
*123 FILLER_11_249
*124 FILLER_11_261
*125 FILLER_11_27
*126 FILLER_11_273
*127 FILLER_11_279
*128 FILLER_11_281
*129 FILLER_11_293
*130 FILLER_11_3
*131 FILLER_11_39
*132 FILLER_11_51
*133 FILLER_11_55
*134 FILLER_11_57
*135 FILLER_11_69
*136 FILLER_11_81
*137 FILLER_11_93
*138 FILLER_12_109
*139 FILLER_12_121
*140 FILLER_12_133
*141 FILLER_12_139
*142 FILLER_12_141
*143 FILLER_12_15
*144 FILLER_12_153
*145 FILLER_12_165
*146 FILLER_12_177
*147 FILLER_12_189
*148 FILLER_12_195
*149 FILLER_12_197
*150 FILLER_12_209
*151 FILLER_12_221
*152 FILLER_12_233
*153 FILLER_12_245
*154 FILLER_12_251
*155 FILLER_12_253
*156 FILLER_12_265
*157 FILLER_12_27
*158 FILLER_12_277
*159 FILLER_12_289
*160 FILLER_12_29
*161 FILLER_12_297
*162 FILLER_12_3
*163 FILLER_12_41
*164 FILLER_12_53
*165 FILLER_12_65
*166 FILLER_12_77
*167 FILLER_12_83
*168 FILLER_12_85
*169 FILLER_12_97
*170 FILLER_13_105
*171 FILLER_13_111
*172 FILLER_13_113
*173 FILLER_13_125
*174 FILLER_13_137
*175 FILLER_13_149
*176 FILLER_13_15
*177 FILLER_13_161
*178 FILLER_13_167
*179 FILLER_13_169
*180 FILLER_13_181
*181 FILLER_13_193
*182 FILLER_13_205
*183 FILLER_13_217
*184 FILLER_13_223
*185 FILLER_13_225
*186 FILLER_13_237
*187 FILLER_13_249
*188 FILLER_13_261
*189 FILLER_13_27
*190 FILLER_13_273
*191 FILLER_13_279
*192 FILLER_13_281
*193 FILLER_13_293
*194 FILLER_13_3
*195 FILLER_13_39
*196 FILLER_13_51
*197 FILLER_13_55
*198 FILLER_13_57
*199 FILLER_13_69
*200 FILLER_13_81
*201 FILLER_13_93
*202 FILLER_14_109
*203 FILLER_14_121
*204 FILLER_14_133
*205 FILLER_14_139
*206 FILLER_14_141
*207 FILLER_14_15
*208 FILLER_14_153
*209 FILLER_14_165
*210 FILLER_14_177
*211 FILLER_14_189
*212 FILLER_14_195
*213 FILLER_14_197
*214 FILLER_14_209
*215 FILLER_14_221
*216 FILLER_14_233
*217 FILLER_14_245
*218 FILLER_14_251
*219 FILLER_14_253
*220 FILLER_14_265
*221 FILLER_14_27
*222 FILLER_14_277
*223 FILLER_14_289
*224 FILLER_14_29
*225 FILLER_14_297
*226 FILLER_14_3
*227 FILLER_14_41
*228 FILLER_14_53
*229 FILLER_14_65
*230 FILLER_14_77
*231 FILLER_14_83
*232 FILLER_14_85
*233 FILLER_14_97
*234 FILLER_15_105
*235 FILLER_15_111
*236 FILLER_15_113
*237 FILLER_15_125
*238 FILLER_15_137
*239 FILLER_15_149
*240 FILLER_15_15
*241 FILLER_15_161
*242 FILLER_15_167
*243 FILLER_15_169
*244 FILLER_15_181
*245 FILLER_15_193
*246 FILLER_15_205
*247 FILLER_15_217
*248 FILLER_15_223
*249 FILLER_15_225
*250 FILLER_15_237
*251 FILLER_15_249
*252 FILLER_15_261
*253 FILLER_15_27
*254 FILLER_15_273
*255 FILLER_15_279
*256 FILLER_15_281
*257 FILLER_15_293
*258 FILLER_15_3
*259 FILLER_15_39
*260 FILLER_15_51
*261 FILLER_15_55
*262 FILLER_15_57
*263 FILLER_15_69
*264 FILLER_15_81
*265 FILLER_15_93
*266 FILLER_16_109
*267 FILLER_16_121
*268 FILLER_16_133
*269 FILLER_16_139
*270 FILLER_16_141
*271 FILLER_16_15
*272 FILLER_16_153
*273 FILLER_16_165
*274 FILLER_16_177
*275 FILLER_16_189
*276 FILLER_16_195
*277 FILLER_16_197
*278 FILLER_16_209
*279 FILLER_16_221
*280 FILLER_16_233
*281 FILLER_16_245
*282 FILLER_16_251
*283 FILLER_16_253
*284 FILLER_16_265
*285 FILLER_16_27
*286 FILLER_16_277
*287 FILLER_16_289
*288 FILLER_16_29
*289 FILLER_16_297
*290 FILLER_16_3
*291 FILLER_16_41
*292 FILLER_16_53
*293 FILLER_16_65
*294 FILLER_16_77
*295 FILLER_16_83
*296 FILLER_16_85
*297 FILLER_16_97
*298 FILLER_17_105
*299 FILLER_17_111
*300 FILLER_17_113
*301 FILLER_17_125
*302 FILLER_17_137
*303 FILLER_17_149
*304 FILLER_17_15
*305 FILLER_17_161
*306 FILLER_17_167
*307 FILLER_17_169
*308 FILLER_17_181
*309 FILLER_17_193
*310 FILLER_17_205
*311 FILLER_17_217
*312 FILLER_17_223
*313 FILLER_17_225
*314 FILLER_17_237
*315 FILLER_17_249
*316 FILLER_17_261
*317 FILLER_17_27
*318 FILLER_17_273
*319 FILLER_17_279
*320 FILLER_17_281
*321 FILLER_17_293
*322 FILLER_17_3
*323 FILLER_17_39
*324 FILLER_17_51
*325 FILLER_17_55
*326 FILLER_17_57
*327 FILLER_17_69
*328 FILLER_17_81
*329 FILLER_17_93
*330 FILLER_18_109
*331 FILLER_18_121
*332 FILLER_18_133
*333 FILLER_18_139
*334 FILLER_18_141
*335 FILLER_18_15
*336 FILLER_18_153
*337 FILLER_18_165
*338 FILLER_18_177
*339 FILLER_18_189
*340 FILLER_18_195
*341 FILLER_18_197
*342 FILLER_18_209
*343 FILLER_18_221
*344 FILLER_18_233
*345 FILLER_18_245
*346 FILLER_18_251
*347 FILLER_18_253
*348 FILLER_18_265
*349 FILLER_18_27
*350 FILLER_18_277
*351 FILLER_18_289
*352 FILLER_18_29
*353 FILLER_18_297
*354 FILLER_18_3
*355 FILLER_18_41
*356 FILLER_18_53
*357 FILLER_18_65
*358 FILLER_18_77
*359 FILLER_18_83
*360 FILLER_18_85
*361 FILLER_18_97
*362 FILLER_19_105
*363 FILLER_19_111
*364 FILLER_19_113
*365 FILLER_19_125
*366 FILLER_19_137
*367 FILLER_19_149
*368 FILLER_19_161
*369 FILLER_19_167
*370 FILLER_19_169
*371 FILLER_19_181
*372 FILLER_19_193
*373 FILLER_19_20
*374 FILLER_19_205
*375 FILLER_19_217
*376 FILLER_19_223
*377 FILLER_19_225
*378 FILLER_19_237
*379 FILLER_19_249
*380 FILLER_19_26
*381 FILLER_19_261
*382 FILLER_19_273
*383 FILLER_19_279
*384 FILLER_19_281
*385 FILLER_19_293
*386 FILLER_19_3
*387 FILLER_19_30
*388 FILLER_19_42
*389 FILLER_19_54
*390 FILLER_19_57
*391 FILLER_19_69
*392 FILLER_19_8
*393 FILLER_19_81
*394 FILLER_19_93
*395 FILLER_1_105
*396 FILLER_1_111
*397 FILLER_1_113
*398 FILLER_1_125
*399 FILLER_1_137
*400 FILLER_1_149
*401 FILLER_1_161
*402 FILLER_1_167
*403 FILLER_1_169
*404 FILLER_1_181
*405 FILLER_1_193
*406 FILLER_1_205
*407 FILLER_1_217
*408 FILLER_1_223
*409 FILLER_1_225
*410 FILLER_1_237
*411 FILLER_1_249
*412 FILLER_1_25
*413 FILLER_1_261
*414 FILLER_1_273
*415 FILLER_1_279
*416 FILLER_1_281
*417 FILLER_1_293
*418 FILLER_1_3
*419 FILLER_1_37
*420 FILLER_1_49
*421 FILLER_1_55
*422 FILLER_1_57
*423 FILLER_1_69
*424 FILLER_1_81
*425 FILLER_1_93
*426 FILLER_20_109
*427 FILLER_20_121
*428 FILLER_20_133
*429 FILLER_20_139
*430 FILLER_20_141
*431 FILLER_20_15
*432 FILLER_20_153
*433 FILLER_20_165
*434 FILLER_20_177
*435 FILLER_20_189
*436 FILLER_20_195
*437 FILLER_20_197
*438 FILLER_20_209
*439 FILLER_20_221
*440 FILLER_20_233
*441 FILLER_20_245
*442 FILLER_20_251
*443 FILLER_20_253
*444 FILLER_20_265
*445 FILLER_20_27
*446 FILLER_20_277
*447 FILLER_20_289
*448 FILLER_20_29
*449 FILLER_20_297
*450 FILLER_20_3
*451 FILLER_20_41
*452 FILLER_20_53
*453 FILLER_20_65
*454 FILLER_20_77
*455 FILLER_20_8
*456 FILLER_20_83
*457 FILLER_20_85
*458 FILLER_20_97
*459 FILLER_21_105
*460 FILLER_21_111
*461 FILLER_21_113
*462 FILLER_21_125
*463 FILLER_21_137
*464 FILLER_21_149
*465 FILLER_21_161
*466 FILLER_21_167
*467 FILLER_21_169
*468 FILLER_21_181
*469 FILLER_21_193
*470 FILLER_21_20
*471 FILLER_21_205
*472 FILLER_21_217
*473 FILLER_21_223
*474 FILLER_21_225
*475 FILLER_21_237
*476 FILLER_21_249
*477 FILLER_21_261
*478 FILLER_21_273
*479 FILLER_21_279
*480 FILLER_21_281
*481 FILLER_21_293
*482 FILLER_21_3
*483 FILLER_21_32
*484 FILLER_21_44
*485 FILLER_21_57
*486 FILLER_21_69
*487 FILLER_21_8
*488 FILLER_21_81
*489 FILLER_21_93
*490 FILLER_22_109
*491 FILLER_22_121
*492 FILLER_22_133
*493 FILLER_22_139
*494 FILLER_22_141
*495 FILLER_22_153
*496 FILLER_22_165
*497 FILLER_22_177
*498 FILLER_22_189
*499 FILLER_22_195
*500 FILLER_22_197
*501 FILLER_22_20
*502 FILLER_22_209
*503 FILLER_22_221
*504 FILLER_22_233
*505 FILLER_22_245
*506 FILLER_22_251
*507 FILLER_22_253
*508 FILLER_22_265
*509 FILLER_22_277
*510 FILLER_22_289
*511 FILLER_22_29
*512 FILLER_22_297
*513 FILLER_22_3
*514 FILLER_22_41
*515 FILLER_22_53
*516 FILLER_22_65
*517 FILLER_22_77
*518 FILLER_22_8
*519 FILLER_22_83
*520 FILLER_22_85
*521 FILLER_22_97
*522 FILLER_23_105
*523 FILLER_23_111
*524 FILLER_23_113
*525 FILLER_23_125
*526 FILLER_23_137
*527 FILLER_23_149
*528 FILLER_23_15
*529 FILLER_23_161
*530 FILLER_23_167
*531 FILLER_23_169
*532 FILLER_23_181
*533 FILLER_23_193
*534 FILLER_23_205
*535 FILLER_23_217
*536 FILLER_23_223
*537 FILLER_23_225
*538 FILLER_23_237
*539 FILLER_23_249
*540 FILLER_23_261
*541 FILLER_23_27
*542 FILLER_23_273
*543 FILLER_23_279
*544 FILLER_23_281
*545 FILLER_23_293
*546 FILLER_23_3
*547 FILLER_23_39
*548 FILLER_23_51
*549 FILLER_23_55
*550 FILLER_23_57
*551 FILLER_23_69
*552 FILLER_23_81
*553 FILLER_23_93
*554 FILLER_24_109
*555 FILLER_24_121
*556 FILLER_24_133
*557 FILLER_24_139
*558 FILLER_24_141
*559 FILLER_24_15
*560 FILLER_24_153
*561 FILLER_24_165
*562 FILLER_24_177
*563 FILLER_24_189
*564 FILLER_24_195
*565 FILLER_24_197
*566 FILLER_24_209
*567 FILLER_24_221
*568 FILLER_24_233
*569 FILLER_24_245
*570 FILLER_24_251
*571 FILLER_24_253
*572 FILLER_24_265
*573 FILLER_24_27
*574 FILLER_24_277
*575 FILLER_24_289
*576 FILLER_24_29
*577 FILLER_24_297
*578 FILLER_24_3
*579 FILLER_24_41
*580 FILLER_24_53
*581 FILLER_24_65
*582 FILLER_24_77
*583 FILLER_24_83
*584 FILLER_24_85
*585 FILLER_24_97
*586 FILLER_25_105
*587 FILLER_25_111
*588 FILLER_25_113
*589 FILLER_25_125
*590 FILLER_25_137
*591 FILLER_25_149
*592 FILLER_25_15
*593 FILLER_25_161
*594 FILLER_25_167
*595 FILLER_25_169
*596 FILLER_25_181
*597 FILLER_25_193
*598 FILLER_25_205
*599 FILLER_25_217
*600 FILLER_25_223
*601 FILLER_25_225
*602 FILLER_25_237
*603 FILLER_25_249
*604 FILLER_25_261
*605 FILLER_25_27
*606 FILLER_25_273
*607 FILLER_25_279
*608 FILLER_25_281
*609 FILLER_25_293
*610 FILLER_25_3
*611 FILLER_25_39
*612 FILLER_25_51
*613 FILLER_25_55
*614 FILLER_25_57
*615 FILLER_25_69
*616 FILLER_25_81
*617 FILLER_25_93
*618 FILLER_26_109
*619 FILLER_26_121
*620 FILLER_26_133
*621 FILLER_26_139
*622 FILLER_26_141
*623 FILLER_26_15
*624 FILLER_26_153
*625 FILLER_26_165
*626 FILLER_26_177
*627 FILLER_26_189
*628 FILLER_26_195
*629 FILLER_26_197
*630 FILLER_26_209
*631 FILLER_26_221
*632 FILLER_26_233
*633 FILLER_26_245
*634 FILLER_26_251
*635 FILLER_26_253
*636 FILLER_26_265
*637 FILLER_26_27
*638 FILLER_26_277
*639 FILLER_26_289
*640 FILLER_26_29
*641 FILLER_26_297
*642 FILLER_26_3
*643 FILLER_26_33
*644 FILLER_26_45
*645 FILLER_26_57
*646 FILLER_26_69
*647 FILLER_26_81
*648 FILLER_26_85
*649 FILLER_26_97
*650 FILLER_27_105
*651 FILLER_27_111
*652 FILLER_27_113
*653 FILLER_27_125
*654 FILLER_27_137
*655 FILLER_27_149
*656 FILLER_27_15
*657 FILLER_27_161
*658 FILLER_27_167
*659 FILLER_27_169
*660 FILLER_27_181
*661 FILLER_27_193
*662 FILLER_27_205
*663 FILLER_27_217
*664 FILLER_27_223
*665 FILLER_27_225
*666 FILLER_27_237
*667 FILLER_27_249
*668 FILLER_27_261
*669 FILLER_27_27
*670 FILLER_27_273
*671 FILLER_27_279
*672 FILLER_27_281
*673 FILLER_27_293
*674 FILLER_27_3
*675 FILLER_27_39
*676 FILLER_27_51
*677 FILLER_27_55
*678 FILLER_27_57
*679 FILLER_27_69
*680 FILLER_27_81
*681 FILLER_27_93
*682 FILLER_28_109
*683 FILLER_28_121
*684 FILLER_28_133
*685 FILLER_28_139
*686 FILLER_28_141
*687 FILLER_28_15
*688 FILLER_28_153
*689 FILLER_28_165
*690 FILLER_28_177
*691 FILLER_28_189
*692 FILLER_28_195
*693 FILLER_28_197
*694 FILLER_28_209
*695 FILLER_28_221
*696 FILLER_28_233
*697 FILLER_28_245
*698 FILLER_28_251
*699 FILLER_28_253
*700 FILLER_28_265
*701 FILLER_28_27
*702 FILLER_28_277
*703 FILLER_28_289
*704 FILLER_28_29
*705 FILLER_28_297
*706 FILLER_28_3
*707 FILLER_28_41
*708 FILLER_28_53
*709 FILLER_28_65
*710 FILLER_28_77
*711 FILLER_28_83
*712 FILLER_28_85
*713 FILLER_28_97
*714 FILLER_29_105
*715 FILLER_29_111
*716 FILLER_29_113
*717 FILLER_29_125
*718 FILLER_29_137
*719 FILLER_29_149
*720 FILLER_29_15
*721 FILLER_29_161
*722 FILLER_29_167
*723 FILLER_29_169
*724 FILLER_29_181
*725 FILLER_29_193
*726 FILLER_29_205
*727 FILLER_29_217
*728 FILLER_29_223
*729 FILLER_29_225
*730 FILLER_29_237
*731 FILLER_29_249
*732 FILLER_29_261
*733 FILLER_29_27
*734 FILLER_29_273
*735 FILLER_29_279
*736 FILLER_29_281
*737 FILLER_29_293
*738 FILLER_29_3
*739 FILLER_29_44
*740 FILLER_29_51
*741 FILLER_29_55
*742 FILLER_29_57
*743 FILLER_29_69
*744 FILLER_29_81
*745 FILLER_29_93
*746 FILLER_2_109
*747 FILLER_2_121
*748 FILLER_2_133
*749 FILLER_2_139
*750 FILLER_2_141
*751 FILLER_2_153
*752 FILLER_2_165
*753 FILLER_2_177
*754 FILLER_2_189
*755 FILLER_2_195
*756 FILLER_2_197
*757 FILLER_2_209
*758 FILLER_2_221
*759 FILLER_2_233
*760 FILLER_2_24
*761 FILLER_2_245
*762 FILLER_2_251
*763 FILLER_2_253
*764 FILLER_2_265
*765 FILLER_2_277
*766 FILLER_2_289
*767 FILLER_2_29
*768 FILLER_2_297
*769 FILLER_2_3
*770 FILLER_2_41
*771 FILLER_2_53
*772 FILLER_2_65
*773 FILLER_2_77
*774 FILLER_2_83
*775 FILLER_2_85
*776 FILLER_2_97
*777 FILLER_30_109
*778 FILLER_30_11
*779 FILLER_30_121
*780 FILLER_30_133
*781 FILLER_30_139
*782 FILLER_30_141
*783 FILLER_30_153
*784 FILLER_30_16
*785 FILLER_30_165
*786 FILLER_30_177
*787 FILLER_30_189
*788 FILLER_30_195
*789 FILLER_30_197
*790 FILLER_30_209
*791 FILLER_30_221
*792 FILLER_30_233
*793 FILLER_30_245
*794 FILLER_30_251
*795 FILLER_30_253
*796 FILLER_30_265
*797 FILLER_30_277
*798 FILLER_30_289
*799 FILLER_30_29
*800 FILLER_30_297
*801 FILLER_30_3
*802 FILLER_30_36
*803 FILLER_30_48
*804 FILLER_30_60
*805 FILLER_30_72
*806 FILLER_30_85
*807 FILLER_30_97
*808 FILLER_31_105
*809 FILLER_31_111
*810 FILLER_31_113
*811 FILLER_31_125
*812 FILLER_31_137
*813 FILLER_31_149
*814 FILLER_31_15
*815 FILLER_31_161
*816 FILLER_31_167
*817 FILLER_31_169
*818 FILLER_31_181
*819 FILLER_31_193
*820 FILLER_31_20
*821 FILLER_31_205
*822 FILLER_31_217
*823 FILLER_31_223
*824 FILLER_31_225
*825 FILLER_31_237
*826 FILLER_31_249
*827 FILLER_31_261
*828 FILLER_31_273
*829 FILLER_31_279
*830 FILLER_31_281
*831 FILLER_31_293
*832 FILLER_31_3
*833 FILLER_31_32
*834 FILLER_31_44
*835 FILLER_31_57
*836 FILLER_31_69
*837 FILLER_31_81
*838 FILLER_31_93
*839 FILLER_32_109
*840 FILLER_32_11
*841 FILLER_32_121
*842 FILLER_32_133
*843 FILLER_32_139
*844 FILLER_32_141
*845 FILLER_32_153
*846 FILLER_32_165
*847 FILLER_32_17
*848 FILLER_32_177
*849 FILLER_32_189
*850 FILLER_32_195
*851 FILLER_32_197
*852 FILLER_32_209
*853 FILLER_32_221
*854 FILLER_32_233
*855 FILLER_32_245
*856 FILLER_32_25
*857 FILLER_32_251
*858 FILLER_32_253
*859 FILLER_32_265
*860 FILLER_32_277
*861 FILLER_32_289
*862 FILLER_32_297
*863 FILLER_32_3
*864 FILLER_32_34
*865 FILLER_32_42
*866 FILLER_32_49
*867 FILLER_32_61
*868 FILLER_32_73
*869 FILLER_32_81
*870 FILLER_32_85
*871 FILLER_32_97
*872 FILLER_33_105
*873 FILLER_33_111
*874 FILLER_33_113
*875 FILLER_33_125
*876 FILLER_33_13
*877 FILLER_33_137
*878 FILLER_33_149
*879 FILLER_33_161
*880 FILLER_33_167
*881 FILLER_33_169
*882 FILLER_33_181
*883 FILLER_33_193
*884 FILLER_33_205
*885 FILLER_33_217
*886 FILLER_33_223
*887 FILLER_33_225
*888 FILLER_33_237
*889 FILLER_33_249
*890 FILLER_33_25
*891 FILLER_33_261
*892 FILLER_33_273
*893 FILLER_33_279
*894 FILLER_33_281
*895 FILLER_33_293
*896 FILLER_33_3
*897 FILLER_33_37
*898 FILLER_33_49
*899 FILLER_33_55
*900 FILLER_33_57
*901 FILLER_33_69
*902 FILLER_33_7
*903 FILLER_33_81
*904 FILLER_33_93
*905 FILLER_34_109
*906 FILLER_34_121
*907 FILLER_34_133
*908 FILLER_34_139
*909 FILLER_34_141
*910 FILLER_34_15
*911 FILLER_34_153
*912 FILLER_34_165
*913 FILLER_34_177
*914 FILLER_34_189
*915 FILLER_34_195
*916 FILLER_34_197
*917 FILLER_34_209
*918 FILLER_34_221
*919 FILLER_34_233
*920 FILLER_34_245
*921 FILLER_34_251
*922 FILLER_34_253
*923 FILLER_34_265
*924 FILLER_34_27
*925 FILLER_34_277
*926 FILLER_34_289
*927 FILLER_34_29
*928 FILLER_34_297
*929 FILLER_34_3
*930 FILLER_34_41
*931 FILLER_34_53
*932 FILLER_34_65
*933 FILLER_34_77
*934 FILLER_34_83
*935 FILLER_34_85
*936 FILLER_34_97
*937 FILLER_35_105
*938 FILLER_35_111
*939 FILLER_35_113
*940 FILLER_35_125
*941 FILLER_35_137
*942 FILLER_35_149
*943 FILLER_35_15
*944 FILLER_35_161
*945 FILLER_35_167
*946 FILLER_35_169
*947 FILLER_35_181
*948 FILLER_35_193
*949 FILLER_35_205
*950 FILLER_35_217
*951 FILLER_35_223
*952 FILLER_35_225
*953 FILLER_35_237
*954 FILLER_35_249
*955 FILLER_35_261
*956 FILLER_35_27
*957 FILLER_35_273
*958 FILLER_35_279
*959 FILLER_35_281
*960 FILLER_35_293
*961 FILLER_35_3
*962 FILLER_35_39
*963 FILLER_35_51
*964 FILLER_35_55
*965 FILLER_35_57
*966 FILLER_35_69
*967 FILLER_35_81
*968 FILLER_35_93
*969 FILLER_36_109
*970 FILLER_36_121
*971 FILLER_36_133
*972 FILLER_36_139
*973 FILLER_36_141
*974 FILLER_36_153
*975 FILLER_36_165
*976 FILLER_36_17
*977 FILLER_36_177
*978 FILLER_36_189
*979 FILLER_36_195
*980 FILLER_36_197
*981 FILLER_36_209
*982 FILLER_36_221
*983 FILLER_36_233
*984 FILLER_36_245
*985 FILLER_36_25
*986 FILLER_36_251
*987 FILLER_36_253
*988 FILLER_36_265
*989 FILLER_36_277
*990 FILLER_36_289
*991 FILLER_36_29
*992 FILLER_36_297
*993 FILLER_36_3
*994 FILLER_36_41
*995 FILLER_36_53
*996 FILLER_36_65
*997 FILLER_36_77
*998 FILLER_36_8
*999 FILLER_36_83
*1000 FILLER_36_85
*1001 FILLER_36_97
*1002 FILLER_37_105
*1003 FILLER_37_111
*1004 FILLER_37_113
*1005 FILLER_37_12
*1006 FILLER_37_125
*1007 FILLER_37_137
*1008 FILLER_37_149
*1009 FILLER_37_161
*1010 FILLER_37_167
*1011 FILLER_37_169
*1012 FILLER_37_181
*1013 FILLER_37_193
*1014 FILLER_37_205
*1015 FILLER_37_217
*1016 FILLER_37_223
*1017 FILLER_37_225
*1018 FILLER_37_237
*1019 FILLER_37_24
*1020 FILLER_37_249
*1021 FILLER_37_261
*1022 FILLER_37_273
*1023 FILLER_37_279
*1024 FILLER_37_281
*1025 FILLER_37_293
*1026 FILLER_37_3
*1027 FILLER_37_36
*1028 FILLER_37_48
*1029 FILLER_37_57
*1030 FILLER_37_69
*1031 FILLER_37_81
*1032 FILLER_37_93
*1033 FILLER_38_109
*1034 FILLER_38_121
*1035 FILLER_38_133
*1036 FILLER_38_139
*1037 FILLER_38_141
*1038 FILLER_38_15
*1039 FILLER_38_153
*1040 FILLER_38_165
*1041 FILLER_38_177
*1042 FILLER_38_189
*1043 FILLER_38_195
*1044 FILLER_38_197
*1045 FILLER_38_209
*1046 FILLER_38_221
*1047 FILLER_38_233
*1048 FILLER_38_245
*1049 FILLER_38_251
*1050 FILLER_38_253
*1051 FILLER_38_265
*1052 FILLER_38_27
*1053 FILLER_38_277
*1054 FILLER_38_289
*1055 FILLER_38_29
*1056 FILLER_38_297
*1057 FILLER_38_3
*1058 FILLER_38_41
*1059 FILLER_38_53
*1060 FILLER_38_65
*1061 FILLER_38_77
*1062 FILLER_38_83
*1063 FILLER_38_85
*1064 FILLER_38_97
*1065 FILLER_39_105
*1066 FILLER_39_111
*1067 FILLER_39_113
*1068 FILLER_39_125
*1069 FILLER_39_13
*1070 FILLER_39_137
*1071 FILLER_39_149
*1072 FILLER_39_161
*1073 FILLER_39_167
*1074 FILLER_39_169
*1075 FILLER_39_181
*1076 FILLER_39_193
*1077 FILLER_39_205
*1078 FILLER_39_217
*1079 FILLER_39_223
*1080 FILLER_39_225
*1081 FILLER_39_237
*1082 FILLER_39_249
*1083 FILLER_39_25
*1084 FILLER_39_261
*1085 FILLER_39_273
*1086 FILLER_39_279
*1087 FILLER_39_281
*1088 FILLER_39_293
*1089 FILLER_39_3
*1090 FILLER_39_37
*1091 FILLER_39_49
*1092 FILLER_39_55
*1093 FILLER_39_57
*1094 FILLER_39_69
*1095 FILLER_39_81
*1096 FILLER_39_93
*1097 FILLER_3_105
*1098 FILLER_3_111
*1099 FILLER_3_113
*1100 FILLER_3_125
*1101 FILLER_3_137
*1102 FILLER_3_149
*1103 FILLER_3_161
*1104 FILLER_3_167
*1105 FILLER_3_169
*1106 FILLER_3_181
*1107 FILLER_3_193
*1108 FILLER_3_205
*1109 FILLER_3_217
*1110 FILLER_3_223
*1111 FILLER_3_225
*1112 FILLER_3_237
*1113 FILLER_3_249
*1114 FILLER_3_261
*1115 FILLER_3_27
*1116 FILLER_3_273
*1117 FILLER_3_279
*1118 FILLER_3_281
*1119 FILLER_3_293
*1120 FILLER_3_3
*1121 FILLER_3_39
*1122 FILLER_3_51
*1123 FILLER_3_55
*1124 FILLER_3_57
*1125 FILLER_3_69
*1126 FILLER_3_81
*1127 FILLER_3_93
*1128 FILLER_40_109
*1129 FILLER_40_121
*1130 FILLER_40_133
*1131 FILLER_40_139
*1132 FILLER_40_141
*1133 FILLER_40_15
*1134 FILLER_40_153
*1135 FILLER_40_165
*1136 FILLER_40_177
*1137 FILLER_40_189
*1138 FILLER_40_195
*1139 FILLER_40_197
*1140 FILLER_40_209
*1141 FILLER_40_221
*1142 FILLER_40_233
*1143 FILLER_40_245
*1144 FILLER_40_251
*1145 FILLER_40_253
*1146 FILLER_40_265
*1147 FILLER_40_27
*1148 FILLER_40_277
*1149 FILLER_40_289
*1150 FILLER_40_29
*1151 FILLER_40_297
*1152 FILLER_40_3
*1153 FILLER_40_41
*1154 FILLER_40_53
*1155 FILLER_40_65
*1156 FILLER_40_77
*1157 FILLER_40_83
*1158 FILLER_40_85
*1159 FILLER_40_97
*1160 FILLER_41_105
*1161 FILLER_41_111
*1162 FILLER_41_113
*1163 FILLER_41_125
*1164 FILLER_41_137
*1165 FILLER_41_149
*1166 FILLER_41_15
*1167 FILLER_41_161
*1168 FILLER_41_167
*1169 FILLER_41_169
*1170 FILLER_41_181
*1171 FILLER_41_193
*1172 FILLER_41_205
*1173 FILLER_41_217
*1174 FILLER_41_223
*1175 FILLER_41_225
*1176 FILLER_41_237
*1177 FILLER_41_249
*1178 FILLER_41_261
*1179 FILLER_41_27
*1180 FILLER_41_273
*1181 FILLER_41_279
*1182 FILLER_41_281
*1183 FILLER_41_293
*1184 FILLER_41_3
*1185 FILLER_41_39
*1186 FILLER_41_51
*1187 FILLER_41_55
*1188 FILLER_41_57
*1189 FILLER_41_69
*1190 FILLER_41_81
*1191 FILLER_41_93
*1192 FILLER_42_109
*1193 FILLER_42_121
*1194 FILLER_42_133
*1195 FILLER_42_139
*1196 FILLER_42_141
*1197 FILLER_42_15
*1198 FILLER_42_153
*1199 FILLER_42_165
*1200 FILLER_42_177
*1201 FILLER_42_189
*1202 FILLER_42_195
*1203 FILLER_42_197
*1204 FILLER_42_209
*1205 FILLER_42_221
*1206 FILLER_42_233
*1207 FILLER_42_245
*1208 FILLER_42_251
*1209 FILLER_42_253
*1210 FILLER_42_265
*1211 FILLER_42_27
*1212 FILLER_42_277
*1213 FILLER_42_289
*1214 FILLER_42_29
*1215 FILLER_42_297
*1216 FILLER_42_3
*1217 FILLER_42_41
*1218 FILLER_42_53
*1219 FILLER_42_65
*1220 FILLER_42_77
*1221 FILLER_42_83
*1222 FILLER_42_85
*1223 FILLER_42_97
*1224 FILLER_43_105
*1225 FILLER_43_111
*1226 FILLER_43_113
*1227 FILLER_43_125
*1228 FILLER_43_137
*1229 FILLER_43_149
*1230 FILLER_43_15
*1231 FILLER_43_161
*1232 FILLER_43_167
*1233 FILLER_43_169
*1234 FILLER_43_181
*1235 FILLER_43_193
*1236 FILLER_43_205
*1237 FILLER_43_217
*1238 FILLER_43_223
*1239 FILLER_43_225
*1240 FILLER_43_23
*1241 FILLER_43_237
*1242 FILLER_43_249
*1243 FILLER_43_261
*1244 FILLER_43_273
*1245 FILLER_43_279
*1246 FILLER_43_28
*1247 FILLER_43_281
*1248 FILLER_43_293
*1249 FILLER_43_3
*1250 FILLER_43_40
*1251 FILLER_43_52
*1252 FILLER_43_57
*1253 FILLER_43_69
*1254 FILLER_43_81
*1255 FILLER_43_93
*1256 FILLER_44_109
*1257 FILLER_44_121
*1258 FILLER_44_133
*1259 FILLER_44_139
*1260 FILLER_44_141
*1261 FILLER_44_15
*1262 FILLER_44_153
*1263 FILLER_44_165
*1264 FILLER_44_177
*1265 FILLER_44_189
*1266 FILLER_44_195
*1267 FILLER_44_197
*1268 FILLER_44_209
*1269 FILLER_44_221
*1270 FILLER_44_233
*1271 FILLER_44_245
*1272 FILLER_44_251
*1273 FILLER_44_253
*1274 FILLER_44_265
*1275 FILLER_44_27
*1276 FILLER_44_277
*1277 FILLER_44_289
*1278 FILLER_44_29
*1279 FILLER_44_297
*1280 FILLER_44_3
*1281 FILLER_44_41
*1282 FILLER_44_53
*1283 FILLER_44_65
*1284 FILLER_44_77
*1285 FILLER_44_83
*1286 FILLER_44_85
*1287 FILLER_44_97
*1288 FILLER_45_105
*1289 FILLER_45_111
*1290 FILLER_45_113
*1291 FILLER_45_12
*1292 FILLER_45_125
*1293 FILLER_45_137
*1294 FILLER_45_149
*1295 FILLER_45_161
*1296 FILLER_45_167
*1297 FILLER_45_169
*1298 FILLER_45_181
*1299 FILLER_45_193
*1300 FILLER_45_205
*1301 FILLER_45_217
*1302 FILLER_45_223
*1303 FILLER_45_225
*1304 FILLER_45_237
*1305 FILLER_45_24
*1306 FILLER_45_249
*1307 FILLER_45_261
*1308 FILLER_45_273
*1309 FILLER_45_279
*1310 FILLER_45_281
*1311 FILLER_45_293
*1312 FILLER_45_3
*1313 FILLER_45_36
*1314 FILLER_45_48
*1315 FILLER_45_57
*1316 FILLER_45_69
*1317 FILLER_45_7
*1318 FILLER_45_81
*1319 FILLER_45_93
*1320 FILLER_46_109
*1321 FILLER_46_121
*1322 FILLER_46_13
*1323 FILLER_46_133
*1324 FILLER_46_139
*1325 FILLER_46_141
*1326 FILLER_46_153
*1327 FILLER_46_165
*1328 FILLER_46_177
*1329 FILLER_46_189
*1330 FILLER_46_195
*1331 FILLER_46_197
*1332 FILLER_46_209
*1333 FILLER_46_221
*1334 FILLER_46_233
*1335 FILLER_46_245
*1336 FILLER_46_25
*1337 FILLER_46_251
*1338 FILLER_46_253
*1339 FILLER_46_265
*1340 FILLER_46_277
*1341 FILLER_46_289
*1342 FILLER_46_29
*1343 FILLER_46_297
*1344 FILLER_46_3
*1345 FILLER_46_41
*1346 FILLER_46_53
*1347 FILLER_46_65
*1348 FILLER_46_77
*1349 FILLER_46_83
*1350 FILLER_46_85
*1351 FILLER_46_97
*1352 FILLER_47_105
*1353 FILLER_47_111
*1354 FILLER_47_113
*1355 FILLER_47_125
*1356 FILLER_47_137
*1357 FILLER_47_149
*1358 FILLER_47_15
*1359 FILLER_47_161
*1360 FILLER_47_167
*1361 FILLER_47_169
*1362 FILLER_47_181
*1363 FILLER_47_193
*1364 FILLER_47_205
*1365 FILLER_47_217
*1366 FILLER_47_223
*1367 FILLER_47_225
*1368 FILLER_47_237
*1369 FILLER_47_249
*1370 FILLER_47_261
*1371 FILLER_47_27
*1372 FILLER_47_273
*1373 FILLER_47_279
*1374 FILLER_47_281
*1375 FILLER_47_293
*1376 FILLER_47_3
*1377 FILLER_47_39
*1378 FILLER_47_51
*1379 FILLER_47_55
*1380 FILLER_47_57
*1381 FILLER_47_69
*1382 FILLER_47_81
*1383 FILLER_47_93
*1384 FILLER_48_109
*1385 FILLER_48_121
*1386 FILLER_48_133
*1387 FILLER_48_139
*1388 FILLER_48_141
*1389 FILLER_48_15
*1390 FILLER_48_153
*1391 FILLER_48_165
*1392 FILLER_48_177
*1393 FILLER_48_189
*1394 FILLER_48_195
*1395 FILLER_48_197
*1396 FILLER_48_209
*1397 FILLER_48_221
*1398 FILLER_48_233
*1399 FILLER_48_245
*1400 FILLER_48_251
*1401 FILLER_48_253
*1402 FILLER_48_265
*1403 FILLER_48_27
*1404 FILLER_48_277
*1405 FILLER_48_289
*1406 FILLER_48_29
*1407 FILLER_48_297
*1408 FILLER_48_3
*1409 FILLER_48_41
*1410 FILLER_48_53
*1411 FILLER_48_65
*1412 FILLER_48_77
*1413 FILLER_48_83
*1414 FILLER_48_85
*1415 FILLER_48_97
*1416 FILLER_49_105
*1417 FILLER_49_111
*1418 FILLER_49_113
*1419 FILLER_49_125
*1420 FILLER_49_137
*1421 FILLER_49_149
*1422 FILLER_49_15
*1423 FILLER_49_161
*1424 FILLER_49_167
*1425 FILLER_49_169
*1426 FILLER_49_181
*1427 FILLER_49_193
*1428 FILLER_49_205
*1429 FILLER_49_217
*1430 FILLER_49_223
*1431 FILLER_49_225
*1432 FILLER_49_237
*1433 FILLER_49_249
*1434 FILLER_49_261
*1435 FILLER_49_27
*1436 FILLER_49_273
*1437 FILLER_49_279
*1438 FILLER_49_281
*1439 FILLER_49_293
*1440 FILLER_49_3
*1441 FILLER_49_39
*1442 FILLER_49_51
*1443 FILLER_49_55
*1444 FILLER_49_57
*1445 FILLER_49_69
*1446 FILLER_49_81
*1447 FILLER_49_93
*1448 FILLER_4_109
*1449 FILLER_4_121
*1450 FILLER_4_133
*1451 FILLER_4_139
*1452 FILLER_4_141
*1453 FILLER_4_153
*1454 FILLER_4_165
*1455 FILLER_4_177
*1456 FILLER_4_189
*1457 FILLER_4_195
*1458 FILLER_4_197
*1459 FILLER_4_209
*1460 FILLER_4_221
*1461 FILLER_4_233
*1462 FILLER_4_24
*1463 FILLER_4_245
*1464 FILLER_4_251
*1465 FILLER_4_253
*1466 FILLER_4_265
*1467 FILLER_4_277
*1468 FILLER_4_289
*1469 FILLER_4_29
*1470 FILLER_4_297
*1471 FILLER_4_41
*1472 FILLER_4_53
*1473 FILLER_4_65
*1474 FILLER_4_77
*1475 FILLER_4_83
*1476 FILLER_4_85
*1477 FILLER_4_97
*1478 FILLER_50_109
*1479 FILLER_50_121
*1480 FILLER_50_133
*1481 FILLER_50_139
*1482 FILLER_50_141
*1483 FILLER_50_15
*1484 FILLER_50_153
*1485 FILLER_50_165
*1486 FILLER_50_177
*1487 FILLER_50_189
*1488 FILLER_50_195
*1489 FILLER_50_197
*1490 FILLER_50_209
*1491 FILLER_50_221
*1492 FILLER_50_233
*1493 FILLER_50_245
*1494 FILLER_50_251
*1495 FILLER_50_253
*1496 FILLER_50_265
*1497 FILLER_50_27
*1498 FILLER_50_277
*1499 FILLER_50_289
*1500 FILLER_50_29
*1501 FILLER_50_297
*1502 FILLER_50_3
*1503 FILLER_50_41
*1504 FILLER_50_53
*1505 FILLER_50_65
*1506 FILLER_50_77
*1507 FILLER_50_83
*1508 FILLER_50_85
*1509 FILLER_50_97
*1510 FILLER_51_105
*1511 FILLER_51_111
*1512 FILLER_51_113
*1513 FILLER_51_125
*1514 FILLER_51_137
*1515 FILLER_51_149
*1516 FILLER_51_161
*1517 FILLER_51_167
*1518 FILLER_51_169
*1519 FILLER_51_181
*1520 FILLER_51_193
*1521 FILLER_51_205
*1522 FILLER_51_21
*1523 FILLER_51_217
*1524 FILLER_51_223
*1525 FILLER_51_225
*1526 FILLER_51_237
*1527 FILLER_51_249
*1528 FILLER_51_261
*1529 FILLER_51_273
*1530 FILLER_51_279
*1531 FILLER_51_281
*1532 FILLER_51_293
*1533 FILLER_51_3
*1534 FILLER_51_33
*1535 FILLER_51_45
*1536 FILLER_51_53
*1537 FILLER_51_57
*1538 FILLER_51_69
*1539 FILLER_51_81
*1540 FILLER_51_9
*1541 FILLER_51_93
*1542 FILLER_52_109
*1543 FILLER_52_121
*1544 FILLER_52_133
*1545 FILLER_52_139
*1546 FILLER_52_141
*1547 FILLER_52_15
*1548 FILLER_52_153
*1549 FILLER_52_165
*1550 FILLER_52_177
*1551 FILLER_52_189
*1552 FILLER_52_195
*1553 FILLER_52_197
*1554 FILLER_52_209
*1555 FILLER_52_221
*1556 FILLER_52_233
*1557 FILLER_52_245
*1558 FILLER_52_251
*1559 FILLER_52_253
*1560 FILLER_52_265
*1561 FILLER_52_27
*1562 FILLER_52_277
*1563 FILLER_52_289
*1564 FILLER_52_29
*1565 FILLER_52_297
*1566 FILLER_52_3
*1567 FILLER_52_41
*1568 FILLER_52_53
*1569 FILLER_52_65
*1570 FILLER_52_77
*1571 FILLER_52_83
*1572 FILLER_52_85
*1573 FILLER_52_97
*1574 FILLER_53_105
*1575 FILLER_53_111
*1576 FILLER_53_113
*1577 FILLER_53_125
*1578 FILLER_53_137
*1579 FILLER_53_149