*SPEF "ieee 1481-1999"
*DESIGN "loxodes_sequencer"
*DATE "11:11:11 Fri 11 11, 1111"
*VENDOR "OpenRCX"
*PROGRAM "Parallel Extraction"
*VERSION "1.0"
*DESIGN_FLOW "NAME_SCOPE LOCAL" "PIN_CAP NONE"
*DIVIDER /
*DELIMITER :
*BUS_DELIMITER []
*T_UNIT 1 NS
*C_UNIT 1 PF
*R_UNIT 1 OHM
*L_UNIT 1 HENRY

*NAME_MAP
*1 io_in[0]
*2 io_in[1]
*3 io_in[2]
*4 io_in[3]
*5 io_in[4]
*6 io_in[5]
*7 io_in[6]
*8 io_in[7]
*9 io_out[0]
*10 io_out[1]
*11 io_out[2]
*12 io_out[3]
*13 io_out[4]
*14 io_out[5]
*15 io_out[6]
*16 io_out[7]
*19 _000_
*20 _001_
*21 _002_
*22 _003_
*23 _004_
*24 _005_
*25 _006_
*26 _007_
*27 _008_
*28 _009_
*29 _010_
*30 _011_
*31 _012_
*32 _013_
*33 _014_
*34 _015_
*35 _016_
*36 _017_
*37 _018_
*38 _019_
*39 _020_
*40 _021_
*41 _022_
*42 _023_
*43 _024_
*44 _025_
*45 _026_
*46 _027_
*47 _028_
*48 _029_
*49 _030_
*50 _031_
*51 _032_
*52 _033_
*53 _034_
*54 _035_
*55 _036_
*56 _037_
*57 _038_
*58 _039_
*59 _040_
*60 _041_
*61 _042_
*62 _043_
*63 _044_
*64 _045_
*65 _046_
*66 _047_
*67 _048_
*68 _049_
*69 _050_
*70 _051_
*71 _052_
*72 _053_
*73 _054_
*74 _055_
*75 _056_
*76 _057_
*77 _058_
*78 _059_
*79 _060_
*80 _061_
*81 _062_
*82 _063_
*83 _064_
*84 _065_
*85 _066_
*86 _067_
*87 _068_
*88 _069_
*89 _070_
*90 _071_
*91 _072_
*92 _073_
*93 _074_
*94 _075_
*95 _076_
*96 _077_
*97 _078_
*98 _079_
*99 _080_
*100 _081_
*101 _082_
*102 _083_
*103 _084_
*104 _085_
*105 _086_
*106 _087_
*107 _088_
*108 _089_
*109 _090_
*110 _091_
*111 _092_
*112 _093_
*113 _094_
*114 _095_
*115 _096_
*116 _097_
*117 _098_
*118 _099_
*119 _100_
*120 _101_
*121 _102_
*122 _103_
*123 _104_
*124 _105_
*125 _106_
*126 _107_
*127 _108_
*128 _109_
*129 _110_
*130 _111_
*131 _112_
*132 _113_
*133 _114_
*134 _115_
*135 _116_
*136 _117_
*137 _118_
*138 _119_
*139 _120_
*140 _121_
*141 _122_
*142 _123_
*143 _124_
*144 _125_
*145 _126_
*146 _127_
*147 _128_
*148 _129_
*149 _130_
*150 _131_
*151 _132_
*152 _133_
*153 channel_index\[0\]
*154 channel_index\[1\]
*155 channel_index\[2\]
*156 channel_index\[3\]
*157 clknet_0_io_in[0]
*158 clknet_1_0__leaf_io_in[0]
*159 clknet_1_1__leaf_io_in[0]
*160 counter\[0\]
*161 counter\[1\]
*162 counter\[2\]
*163 counter\[3\]
*164 counter\[4\]
*165 net1
*166 net2
*167 net3
*168 net4
*169 net5
*170 net6
*171 net7
*172 FILLER_0_109
*173 FILLER_0_113
*174 FILLER_0_125
*175 FILLER_0_137
*176 FILLER_0_141
*177 FILLER_0_153
*178 FILLER_0_165
*179 FILLER_0_169
*180 FILLER_0_181
*181 FILLER_0_193
*182 FILLER_0_197
*183 FILLER_0_209
*184 FILLER_0_221
*185 FILLER_0_225
*186 FILLER_0_237
*187 FILLER_0_24
*188 FILLER_0_249
*189 FILLER_0_253
*190 FILLER_0_265
*191 FILLER_0_277
*192 FILLER_0_281
*193 FILLER_0_29
*194 FILLER_0_293
*195 FILLER_0_3
*196 FILLER_0_35
*197 FILLER_0_52
*198 FILLER_0_73
*199 FILLER_0_80
*200 FILLER_0_85
*201 FILLER_0_97
*202 FILLER_10_109
*203 FILLER_10_121
*204 FILLER_10_133
*205 FILLER_10_139
*206 FILLER_10_141
*207 FILLER_10_153
*208 FILLER_10_165
*209 FILLER_10_177
*210 FILLER_10_189
*211 FILLER_10_195
*212 FILLER_10_197
*213 FILLER_10_20
*214 FILLER_10_209
*215 FILLER_10_221
*216 FILLER_10_233
*217 FILLER_10_245
*218 FILLER_10_251
*219 FILLER_10_253
*220 FILLER_10_265
*221 FILLER_10_277
*222 FILLER_10_289
*223 FILLER_10_29
*224 FILLER_10_297
*225 FILLER_10_41
*226 FILLER_10_53
*227 FILLER_10_65
*228 FILLER_10_77
*229 FILLER_10_83
*230 FILLER_10_85
*231 FILLER_10_97
*232 FILLER_11_108
*233 FILLER_11_119
*234 FILLER_11_131
*235 FILLER_11_143
*236 FILLER_11_15
*237 FILLER_11_155
*238 FILLER_11_167
*239 FILLER_11_169
*240 FILLER_11_181
*241 FILLER_11_193
*242 FILLER_11_205
*243 FILLER_11_217
*244 FILLER_11_223
*245 FILLER_11_225
*246 FILLER_11_237
*247 FILLER_11_249
*248 FILLER_11_261
*249 FILLER_11_27
*250 FILLER_11_273
*251 FILLER_11_279
*252 FILLER_11_281
*253 FILLER_11_293
*254 FILLER_11_3
*255 FILLER_11_39
*256 FILLER_11_51
*257 FILLER_11_55
*258 FILLER_11_60
*259 FILLER_11_72
*260 FILLER_11_84
*261 FILLER_11_96
*262 FILLER_12_107
*263 FILLER_12_119
*264 FILLER_12_123
*265 FILLER_12_132
*266 FILLER_12_141
*267 FILLER_12_153
*268 FILLER_12_165
*269 FILLER_12_177
*270 FILLER_12_18
*271 FILLER_12_189
*272 FILLER_12_195
*273 FILLER_12_197
*274 FILLER_12_209
*275 FILLER_12_221
*276 FILLER_12_233
*277 FILLER_12_245
*278 FILLER_12_251
*279 FILLER_12_253
*280 FILLER_12_26
*281 FILLER_12_265
*282 FILLER_12_277
*283 FILLER_12_289
*284 FILLER_12_29
*285 FILLER_12_297
*286 FILLER_12_40
*287 FILLER_12_52
*288 FILLER_12_6
*289 FILLER_12_64
*290 FILLER_12_76
*291 FILLER_12_85
*292 FILLER_12_95
*293 FILLER_13_105
*294 FILLER_13_11
*295 FILLER_13_111
*296 FILLER_13_113
*297 FILLER_13_125
*298 FILLER_13_137
*299 FILLER_13_145
*300 FILLER_13_155
*301 FILLER_13_167
*302 FILLER_13_169
*303 FILLER_13_18
*304 FILLER_13_181
*305 FILLER_13_193
*306 FILLER_13_205
*307 FILLER_13_217
*308 FILLER_13_223
*309 FILLER_13_225
*310 FILLER_13_237
*311 FILLER_13_249
*312 FILLER_13_261
*313 FILLER_13_273
*314 FILLER_13_279
*315 FILLER_13_281
*316 FILLER_13_293
*317 FILLER_13_3
*318 FILLER_13_30
*319 FILLER_13_42
*320 FILLER_13_54
*321 FILLER_13_57
*322 FILLER_13_69
*323 FILLER_13_81
*324 FILLER_13_93
*325 FILLER_14_10
*326 FILLER_14_109
*327 FILLER_14_121
*328 FILLER_14_133
*329 FILLER_14_139
*330 FILLER_14_141
*331 FILLER_14_153
*332 FILLER_14_165
*333 FILLER_14_177
*334 FILLER_14_189
*335 FILLER_14_195
*336 FILLER_14_197
*337 FILLER_14_209
*338 FILLER_14_22
*339 FILLER_14_221
*340 FILLER_14_233
*341 FILLER_14_245
*342 FILLER_14_251
*343 FILLER_14_253
*344 FILLER_14_265
*345 FILLER_14_277
*346 FILLER_14_289
*347 FILLER_14_29
*348 FILLER_14_297
*349 FILLER_14_40
*350 FILLER_14_55
*351 FILLER_14_67
*352 FILLER_14_71
*353 FILLER_14_75
*354 FILLER_14_83
*355 FILLER_14_85
*356 FILLER_14_97
*357 FILLER_15_101
*358 FILLER_15_105
*359 FILLER_15_111
*360 FILLER_15_113
*361 FILLER_15_125
*362 FILLER_15_137
*363 FILLER_15_149
*364 FILLER_15_15
*365 FILLER_15_161
*366 FILLER_15_167
*367 FILLER_15_169
*368 FILLER_15_181
*369 FILLER_15_19
*370 FILLER_15_193
*371 FILLER_15_205
*372 FILLER_15_217
*373 FILLER_15_223
*374 FILLER_15_225
*375 FILLER_15_237
*376 FILLER_15_249
*377 FILLER_15_261
*378 FILLER_15_273
*379 FILLER_15_279
*380 FILLER_15_28
*381 FILLER_15_281
*382 FILLER_15_293
*383 FILLER_15_3
*384 FILLER_15_35
*385 FILLER_15_47
*386 FILLER_15_55
*387 FILLER_15_61
*388 FILLER_15_73
*389 FILLER_15_85
*390 FILLER_15_97
*391 FILLER_16_104
*392 FILLER_16_116
*393 FILLER_16_123
*394 FILLER_16_135
*395 FILLER_16_139
*396 FILLER_16_141
*397 FILLER_16_153
*398 FILLER_16_165
*399 FILLER_16_177
*400 FILLER_16_18
*401 FILLER_16_189
*402 FILLER_16_195
*403 FILLER_16_197
*404 FILLER_16_209
*405 FILLER_16_221
*406 FILLER_16_233
*407 FILLER_16_245
*408 FILLER_16_251
*409 FILLER_16_253
*410 FILLER_16_26
*411 FILLER_16_265
*412 FILLER_16_277
*413 FILLER_16_289
*414 FILLER_16_29
*415 FILLER_16_297
*416 FILLER_16_41
*417 FILLER_16_50
*418 FILLER_16_6
*419 FILLER_16_62
*420 FILLER_16_74
*421 FILLER_16_82
*422 FILLER_16_92
*423 FILLER_17_103
*424 FILLER_17_111
*425 FILLER_17_113
*426 FILLER_17_12
*427 FILLER_17_125
*428 FILLER_17_137
*429 FILLER_17_149
*430 FILLER_17_161
*431 FILLER_17_167
*432 FILLER_17_169
*433 FILLER_17_181
*434 FILLER_17_193
*435 FILLER_17_205
*436 FILLER_17_217
*437 FILLER_17_223
*438 FILLER_17_225
*439 FILLER_17_237
*440 FILLER_17_24
*441 FILLER_17_249
*442 FILLER_17_261
*443 FILLER_17_273
*444 FILLER_17_279
*445 FILLER_17_281
*446 FILLER_17_293
*447 FILLER_17_3
*448 FILLER_17_32
*449 FILLER_17_39
*450 FILLER_17_43
*451 FILLER_17_51
*452 FILLER_17_55
*453 FILLER_17_57
*454 FILLER_17_67
*455 FILLER_17_7
*456 FILLER_17_79
*457 FILLER_17_91
*458 FILLER_18_109
*459 FILLER_18_121
*460 FILLER_18_129
*461 FILLER_18_136
*462 FILLER_18_141
*463 FILLER_18_147
*464 FILLER_18_15
*465 FILLER_18_157
*466 FILLER_18_169
*467 FILLER_18_181
*468 FILLER_18_193
*469 FILLER_18_197
*470 FILLER_18_209
*471 FILLER_18_221
*472 FILLER_18_233
*473 FILLER_18_24
*474 FILLER_18_245
*475 FILLER_18_251
*476 FILLER_18_253
*477 FILLER_18_265
*478 FILLER_18_277
*479 FILLER_18_289
*480 FILLER_18_29
*481 FILLER_18_297
*482 FILLER_18_3
*483 FILLER_18_37
*484 FILLER_18_46
*485 FILLER_18_63
*486 FILLER_18_67
*487 FILLER_18_71
*488 FILLER_18_78
*489 FILLER_18_85
*490 FILLER_18_97
*491 FILLER_19_102
*492 FILLER_19_108
*493 FILLER_19_113
*494 FILLER_19_125
*495 FILLER_19_137
*496 FILLER_19_149
*497 FILLER_19_15
*498 FILLER_19_161
*499 FILLER_19_167
*500 FILLER_19_169
*501 FILLER_19_181
*502 FILLER_19_193
*503 FILLER_19_205
*504 FILLER_19_217
*505 FILLER_19_22
*506 FILLER_19_223
*507 FILLER_19_225
*508 FILLER_19_237
*509 FILLER_19_249
*510 FILLER_19_261
*511 FILLER_19_273
*512 FILLER_19_279
*513 FILLER_19_281
*514 FILLER_19_293
*515 FILLER_19_3
*516 FILLER_19_34
*517 FILLER_19_46
*518 FILLER_19_54
*519 FILLER_19_57
*520 FILLER_19_69
*521 FILLER_19_94
*522 FILLER_1_105
*523 FILLER_1_111
*524 FILLER_1_113
*525 FILLER_1_122
*526 FILLER_1_134
*527 FILLER_1_143
*528 FILLER_1_15
*529 FILLER_1_155
*530 FILLER_1_164
*531 FILLER_1_169
*532 FILLER_1_181
*533 FILLER_1_189
*534 FILLER_1_196
*535 FILLER_1_208
*536 FILLER_1_220
*537 FILLER_1_225
*538 FILLER_1_237
*539 FILLER_1_249
*540 FILLER_1_261
*541 FILLER_1_273
*542 FILLER_1_279
*543 FILLER_1_281
*544 FILLER_1_293
*545 FILLER_1_3
*546 FILLER_1_36
*547 FILLER_1_48
*548 FILLER_1_52
*549 FILLER_1_64
*550 FILLER_1_72
*551 FILLER_1_78
*552 FILLER_1_86
*553 FILLER_1_93
*554 FILLER_20_109
*555 FILLER_20_121
*556 FILLER_20_13
*557 FILLER_20_133
*558 FILLER_20_139
*559 FILLER_20_148
*560 FILLER_20_160
*561 FILLER_20_172
*562 FILLER_20_184
*563 FILLER_20_197
*564 FILLER_20_209
*565 FILLER_20_221
*566 FILLER_20_233
*567 FILLER_20_245
*568 FILLER_20_25
*569 FILLER_20_251
*570 FILLER_20_253
*571 FILLER_20_265
*572 FILLER_20_277
*573 FILLER_20_289
*574 FILLER_20_29
*575 FILLER_20_297
*576 FILLER_20_3
*577 FILLER_20_37
*578 FILLER_20_44
*579 FILLER_20_56
*580 FILLER_20_62
*581 FILLER_20_66
*582 FILLER_20_79
*583 FILLER_20_83
*584 FILLER_20_85
*585 FILLER_20_97
*586 FILLER_21_110
*587 FILLER_21_113
*588 FILLER_21_125
*589 FILLER_21_131
*590 FILLER_21_136
*591 FILLER_21_148
*592 FILLER_21_160
*593 FILLER_21_169
*594 FILLER_21_18
*595 FILLER_21_181
*596 FILLER_21_193
*597 FILLER_21_205
*598 FILLER_21_217
*599 FILLER_21_223
*600 FILLER_21_225
*601 FILLER_21_237
*602 FILLER_21_249
*603 FILLER_21_26
*604 FILLER_21_261
*605 FILLER_21_273
*606 FILLER_21_279
*607 FILLER_21_281
*608 FILLER_21_293
*609 FILLER_21_37
*610 FILLER_21_49
*611 FILLER_21_55
*612 FILLER_21_57
*613 FILLER_21_6
*614 FILLER_21_64
*615 FILLER_21_72
*616 FILLER_21_79
*617 FILLER_21_86
*618 FILLER_21_98
*619 FILLER_22_104
*620 FILLER_22_116
*621 FILLER_22_128
*622 FILLER_22_132
*623 FILLER_22_136
*624 FILLER_22_141
*625 FILLER_22_153
*626 FILLER_22_165
*627 FILLER_22_173
*628 FILLER_22_178
*629 FILLER_22_190
*630 FILLER_22_197
*631 FILLER_22_20
*632 FILLER_22_209
*633 FILLER_22_221
*634 FILLER_22_233
*635 FILLER_22_245
*636 FILLER_22_251
*637 FILLER_22_253
*638 FILLER_22_265
*639 FILLER_22_277
*640 FILLER_22_289
*641 FILLER_22_297
*642 FILLER_22_3
*643 FILLER_22_32
*644 FILLER_22_36
*645 FILLER_22_42
*646 FILLER_22_54
*647 FILLER_22_60
*648 FILLER_22_69
*649 FILLER_22_81
*650 FILLER_22_92
*651 FILLER_23_101
*652 FILLER_23_106
*653 FILLER_23_113
*654 FILLER_23_125
*655 FILLER_23_137
*656 FILLER_23_149
*657 FILLER_23_159
*658 FILLER_23_167
*659 FILLER_23_169
*660 FILLER_23_18
*661 FILLER_23_181
*662 FILLER_23_193
*663 FILLER_23_205
*664 FILLER_23_217
*665 FILLER_23_223
*666 FILLER_23_225
*667 FILLER_23_237
*668 FILLER_23_249
*669 FILLER_23_261
*670 FILLER_23_273
*671 FILLER_23_279
*672 FILLER_23_281
*673 FILLER_23_293
*674 FILLER_23_30
*675 FILLER_23_42
*676 FILLER_23_54
*677 FILLER_23_57
*678 FILLER_23_6
*679 FILLER_23_69
*680 FILLER_23_81
*681 FILLER_23_89
*682 FILLER_24_114
*683 FILLER_24_126
*684 FILLER_24_135
*685 FILLER_24_139
*686 FILLER_24_14
*687 FILLER_24_141
*688 FILLER_24_153
*689 FILLER_24_165
*690 FILLER_24_177
*691 FILLER_24_189
*692 FILLER_24_195
*693 FILLER_24_197
*694 FILLER_24_209
*695 FILLER_24_21
*696 FILLER_24_221
*697 FILLER_24_233
*698 FILLER_24_245
*699 FILLER_24_251
*700 FILLER_24_253
*701 FILLER_24_265
*702 FILLER_24_27
*703 FILLER_24_277
*704 FILLER_24_289
*705 FILLER_24_29
*706 FILLER_24_297
*707 FILLER_24_3
*708 FILLER_24_40
*709 FILLER_24_52
*710 FILLER_24_64
*711 FILLER_24_71
*712 FILLER_24_83
*713 FILLER_24_85
*714 FILLER_24_99
*715 FILLER_25_107
*716 FILLER_25_111
*717 FILLER_25_113
*718 FILLER_25_124
*719 FILLER_25_136
*720 FILLER_25_148
*721 FILLER_25_16
*722 FILLER_25_160
*723 FILLER_25_169
*724 FILLER_25_181
*725 FILLER_25_193
*726 FILLER_25_205
*727 FILLER_25_217
*728 FILLER_25_223
*729 FILLER_25_225
*730 FILLER_25_237
*731 FILLER_25_249
*732 FILLER_25_261
*733 FILLER_25_273
*734 FILLER_25_279
*735 FILLER_25_28
*736 FILLER_25_281
*737 FILLER_25_293
*738 FILLER_25_3
*739 FILLER_25_36
*740 FILLER_25_42
*741 FILLER_25_54
*742 FILLER_25_57
*743 FILLER_25_69
*744 FILLER_25_83
*745 FILLER_25_95
*746 FILLER_26_107
*747 FILLER_26_119
*748 FILLER_26_131
*749 FILLER_26_139
*750 FILLER_26_141
*751 FILLER_26_15
*752 FILLER_26_153
*753 FILLER_26_165
*754 FILLER_26_177
*755 FILLER_26_189
*756 FILLER_26_195
*757 FILLER_26_197
*758 FILLER_26_209
*759 FILLER_26_221
*760 FILLER_26_233
*761 FILLER_26_245
*762 FILLER_26_251
*763 FILLER_26_253
*764 FILLER_26_265
*765 FILLER_26_27
*766 FILLER_26_277
*767 FILLER_26_289
*768 FILLER_26_29
*769 FILLER_26_297
*770 FILLER_26_3
*771 FILLER_26_41
*772 FILLER_26_53
*773 FILLER_26_65
*774 FILLER_26_77
*775 FILLER_26_83
*776 FILLER_26_85
*777 FILLER_26_95
*778 FILLER_27_105
*779 FILLER_27_111
*780 FILLER_27_122
*781 FILLER_27_134
*782 FILLER_27_146
*783 FILLER_27_158
*784 FILLER_27_166
*785 FILLER_27_169
*786 FILLER_27_18
*787 FILLER_27_181
*788 FILLER_27_193
*789 FILLER_27_205
*790 FILLER_27_217
*791 FILLER_27_223
*792 FILLER_27_225
*793 FILLER_27_237
*794 FILLER_27_249
*795 FILLER_27_261
*796 FILLER_27_273
*797 FILLER_27_279
*798 FILLER_27_281
*799 FILLER_27_293
*800 FILLER_27_30
*801 FILLER_27_42
*802 FILLER_27_54
*803 FILLER_27_57
*804 FILLER_27_6
*805 FILLER_27_69
*806 FILLER_27_81
*807 FILLER_27_93
*808 FILLER_28_111
*809 FILLER_28_123
*810 FILLER_28_135
*811 FILLER_28_139
*812 FILLER_28_141
*813 FILLER_28_15
*814 FILLER_28_153
*815 FILLER_28_165
*816 FILLER_28_177
*817 FILLER_28_189
*818 FILLER_28_195
*819 FILLER_28_197
*820 FILLER_28_209
*821 FILLER_28_221
*822 FILLER_28_233
*823 FILLER_28_245
*824 FILLER_28_251
*825 FILLER_28_253
*826 FILLER_28_265
*827 FILLER_28_27
*828 FILLER_28_277
*829 FILLER_28_289
*830 FILLER_28_29
*831 FILLER_28_297
*832 FILLER_28_3
*833 FILLER_28_37
*834 FILLER_28_47
*835 FILLER_28_56
*836 FILLER_28_65
*837 FILLER_28_77
*838 FILLER_28_83
*839 FILLER_28_85
*840 FILLER_28_93
*841 FILLER_28_99
*842 FILLER_29_108
*843 FILLER_29_113
*844 FILLER_29_125
*845 FILLER_29_137
*846 FILLER_29_149
*847 FILLER_29_15
*848 FILLER_29_161
*849 FILLER_29_167
*850 FILLER_29_169
*851 FILLER_29_181
*852 FILLER_29_193
*853 FILLER_29_205
*854 FILLER_29_217
*855 FILLER_29_223
*856 FILLER_29_225
*857 FILLER_29_237
*858 FILLER_29_249
*859 FILLER_29_261
*860 FILLER_29_27
*861 FILLER_29_273
*862 FILLER_29_279
*863 FILLER_29_281
*864 FILLER_29_293
*865 FILLER_29_3
*866 FILLER_29_35
*867 FILLER_29_39
*868 FILLER_29_43
*869 FILLER_29_55
*870 FILLER_29_57
*871 FILLER_29_69
*872 FILLER_29_81
*873 FILLER_29_93
*874 FILLER_29_99
*875 FILLER_2_109
*876 FILLER_2_121
*877 FILLER_2_133
*878 FILLER_2_139
*879 FILLER_2_141
*880 FILLER_2_153
*881 FILLER_2_165
*882 FILLER_2_177
*883 FILLER_2_189
*884 FILLER_2_195
*885 FILLER_2_197
*886 FILLER_2_209
*887 FILLER_2_221
*888 FILLER_2_233
*889 FILLER_2_24
*890 FILLER_2_245
*891 FILLER_2_251
*892 FILLER_2_253
*893 FILLER_2_265
*894 FILLER_2_277
*895 FILLER_2_289
*896 FILLER_2_29
*897 FILLER_2_297
*898 FILLER_2_3
*899 FILLER_2_35
*900 FILLER_2_52
*901 FILLER_2_72
*902 FILLER_2_85
*903 FILLER_2_97
*904 FILLER_30_109
*905 FILLER_30_121
*906 FILLER_30_133
*907 FILLER_30_139
*908 FILLER_30_141
*909 FILLER_30_15
*910 FILLER_30_153
*911 FILLER_30_165
*912 FILLER_30_177
*913 FILLER_30_189
*914 FILLER_30_195
*915 FILLER_30_197
*916 FILLER_30_209
*917 FILLER_30_221
*918 FILLER_30_233
*919 FILLER_30_245
*920 FILLER_30_251
*921 FILLER_30_253
*922 FILLER_30_265
*923 FILLER_30_27
*924 FILLER_30_277
*925 FILLER_30_289
*926 FILLER_30_29
*927 FILLER_30_297
*928 FILLER_30_3
*929 FILLER_30_41
*930 FILLER_30_53
*931 FILLER_30_59
*932 FILLER_30_63
*933 FILLER_30_75
*934 FILLER_30_83
*935 FILLER_30_85
*936 FILLER_30_97
*937 FILLER_31_103
*938 FILLER_31_11
*939 FILLER_31_111
*940 FILLER_31_113
*941 FILLER_31_121
*942 FILLER_31_133
*943 FILLER_31_145
*944 FILLER_31_157
*945 FILLER_31_165
*946 FILLER_31_169
*947 FILLER_31_181
*948 FILLER_31_193
*949 FILLER_31_205
*950 FILLER_31_217
*951 FILLER_31_223
*952 FILLER_31_225
*953 FILLER_31_23
*954 FILLER_31_237
*955 FILLER_31_249
*956 FILLER_31_261
*957 FILLER_31_273
*958 FILLER_31_279
*959 FILLER_31_281
*960 FILLER_31_293
*961 FILLER_31_3
*962 FILLER_31_46
*963 FILLER_31_54
*964 FILLER_31_57
*965 FILLER_31_67
*966 FILLER_31_79
*967 FILLER_31_91
*968 FILLER_31_99
*969 FILLER_32_109
*970 FILLER_32_121
*971 FILLER_32_133
*972 FILLER_32_139
*973 FILLER_32_141
*974 FILLER_32_15
*975 FILLER_32_153
*976 FILLER_32_165
*977 FILLER_32_177
*978 FILLER_32_189
*979 FILLER_32_195
*980 FILLER_32_197
*981 FILLER_32_209
*982 FILLER_32_221
*983 FILLER_32_233
*984 FILLER_32_245
*985 FILLER_32_251
*986 FILLER_32_253
*987 FILLER_32_265
*988 FILLER_32_27
*989 FILLER_32_277
*990 FILLER_32_289
*991 FILLER_32_297
*992 FILLER_32_3
*993 FILLER_32_36
*994 FILLER_32_48
*995 FILLER_32_52
*996 FILLER_32_58
*997 FILLER_32_70
*998 FILLER_32_82
*999 FILLER_32_85
*1000 FILLER_32_97
*1001 FILLER_33_105
*1002 FILLER_33_111
*1003 FILLER_33_113
*1004 FILLER_33_125
*1005 FILLER_33_137
*1006 FILLER_33_149
*1007 FILLER_33_15
*1008 FILLER_33_161
*1009 FILLER_33_167
*1010 FILLER_33_169
*1011 FILLER_33_181
*1012 FILLER_33_193
*1013 FILLER_33_205
*1014 FILLER_33_217
*1015 FILLER_33_223
*1016 FILLER_33_225
*1017 FILLER_33_237
*1018 FILLER_33_24
*1019 FILLER_33_249
*1020 FILLER_33_261
*1021 FILLER_33_273
*1022 FILLER_33_279
*1023 FILLER_33_281
*1024 FILLER_33_293
*1025 FILLER_33_3
*1026 FILLER_33_30
*1027 FILLER_33_34
*1028 FILLER_33_46
*1029 FILLER_33_54
*1030 FILLER_33_57
*1031 FILLER_33_69
*1032 FILLER_33_81
*1033 FILLER_33_93
*1034 FILLER_34_109
*1035 FILLER_34_121
*1036 FILLER_34_133
*1037 FILLER_34_139
*1038 FILLER_34_141
*1039 FILLER_34_15
*1040 FILLER_34_153
*1041 FILLER_34_165
*1042 FILLER_34_177
*1043 FILLER_34_189
*1044 FILLER_34_195
*1045 FILLER_34_197
*1046 FILLER_34_209
*1047 FILLER_34_221
*1048 FILLER_34_233
*1049 FILLER_34_245
*1050 FILLER_34_251
*1051 FILLER_34_253
*1052 FILLER_34_265
*1053 FILLER_34_27
*1054 FILLER_34_277
*1055 FILLER_34_289
*1056 FILLER_34_29
*1057 FILLER_34_297
*1058 FILLER_34_3
*1059 FILLER_34_41
*1060 FILLER_34_53
*1061 FILLER_34_65
*1062 FILLER_34_77
*1063 FILLER_34_83
*1064 FILLER_34_85
*1065 FILLER_34_97
*1066 FILLER_35_108
*1067 FILLER_35_11
*1068 FILLER_35_113
*1069 FILLER_35_125
*1070 FILLER_35_137
*1071 FILLER_35_149
*1072 FILLER_35_161
*1073 FILLER_35_167
*1074 FILLER_35_169
*1075 FILLER_35_17
*1076 FILLER_35_181
*1077 FILLER_35_193
*1078 FILLER_35_205
*1079 FILLER_35_217
*1080 FILLER_35_223
*1081 FILLER_35_225
*1082 FILLER_35_237
*1083 FILLER_35_249
*1084 FILLER_35_261
*1085 FILLER_35_273
*1086 FILLER_35_279
*1087 FILLER_35_28
*1088 FILLER_35_281
*1089 FILLER_35_293
*1090 FILLER_35_3
*1091 FILLER_35_35
*1092 FILLER_35_47
*1093 FILLER_35_55
*1094 FILLER_35_64
*1095 FILLER_35_72
*1096 FILLER_35_84
*1097 FILLER_35_96
*1098 FILLER_36_109
*1099 FILLER_36_121
*1100 FILLER_36_133
*1101 FILLER_36_139
*1102 FILLER_36_141
*1103 FILLER_36_15
*1104 FILLER_36_153
*1105 FILLER_36_165
*1106 FILLER_36_177
*1107 FILLER_36_189
*1108 FILLER_36_195
*1109 FILLER_36_197
*1110 FILLER_36_209
*1111 FILLER_36_221
*1112 FILLER_36_233
*1113 FILLER_36_245
*1114 FILLER_36_251
*1115 FILLER_36_253
*1116 FILLER_36_265
*1117 FILLER_36_27
*1118 FILLER_36_277
*1119 FILLER_36_289
*1120 FILLER_36_29
*1121 FILLER_36_297
*1122 FILLER_36_3
*1123 FILLER_36_41
*1124 FILLER_36_53
*1125 FILLER_36_65
*1126 FILLER_36_77
*1127 FILLER_36_83
*1128 FILLER_36_85
*1129 FILLER_36_97
*1130 FILLER_37_105
*1131 FILLER_37_111
*1132 FILLER_37_113
*1133 FILLER_37_125
*1134 FILLER_37_137
*1135 FILLER_37_149
*1136 FILLER_37_15
*1137 FILLER_37_161
*1138 FILLER_37_167
*1139 FILLER_37_169
*1140 FILLER_37_181
*1141 FILLER_37_193
*1142 FILLER_37_205
*1143 FILLER_37_217
*1144 FILLER_37_223
*1145 FILLER_37_225
*1146 FILLER_37_237
*1147 FILLER_37_249
*1148 FILLER_37_261
*1149 FILLER_37_27
*1150 FILLER_37_273
*1151 FILLER_37_279
*1152 FILLER_37_281
*1153 FILLER_37_293
*1154 FILLER_37_3
*1155 FILLER_37_32
*1156 FILLER_37_44
*1157 FILLER_37_57
*1158 FILLER_37_69
*1159 FILLER_37_81
*1160 FILLER_37_93
*1161 FILLER_38_109
*1162 FILLER_38_121
*1163 FILLER_38_133
*1164 FILLER_38_139
*1165 FILLER_38_141
*1166 FILLER_38_15
*1167 FILLER_38_153
*1168 FILLER_38_165
*1169 FILLER_38_177
*1170 FILLER_38_189
*1171 FILLER_38_195
*1172 FILLER_38_197
*1173 FILLER_38_209
*1174 FILLER_38_22
*1175 FILLER_38_221
*1176 FILLER_38_233
*1177 FILLER_38_245
*1178 FILLER_38_251
*1179 FILLER_38_253
*1180 FILLER_38_265
*1181 FILLER_38_277
*1182 FILLER_38_289
*1183 FILLER_38_29
*1184 FILLER_38_297
*1185 FILLER_38_3
*1186 FILLER_38_41
*1187 FILLER_38_48
*1188 FILLER_38_60
*1189 FILLER_38_72
*1190 FILLER_38_85
*1191 FILLER_38_97
*1192 FILLER_39_104
*1193 FILLER_39_113
*1194 FILLER_39_125
*1195 FILLER_39_137
*1196 FILLER_39_149
*1197 FILLER_39_15
*1198 FILLER_39_161
*1199 FILLER_39_167
*1200 FILLER_39_169
*1201 FILLER_39_181
*1202 FILLER_39_193
*1203 FILLER_39_205
*1204 FILLER_39_217
*1205 FILLER_39_223
*1206 FILLER_39_225
*1207 FILLER_39_237
*1208 FILLER_39_249
*1209 FILLER_39_261
*1210 FILLER_39_27
*1211 FILLER_39_273
*1212 FILLER_39_279
*1213 FILLER_39_281
*1214 FILLER_39_293
*1215 FILLER_39_3
*1216 FILLER_39_39
*1217 FILLER_39_51
*1218 FILLER_39_55
*1219 FILLER_39_57
*1220 FILLER_39_70
*1221 FILLER_39_82
*1222 FILLER_39_92
*1223 FILLER_3_105
*1224 FILLER_3_11
*1225 FILLER_3_111
*1226 FILLER_3_113
*1227 FILLER_3_125
*1228 FILLER_3_137
*1229 FILLER_3_149
*1230 FILLER_3_161
*1231 FILLER_3_167
*1232 FILLER_3_169
*1233 FILLER_3_181
*1234 FILLER_3_193
*1235 FILLER_3_205
*1236 FILLER_3_217
*1237 FILLER_3_223
*1238 FILLER_3_238
*1239 FILLER_3_250
*1240 FILLER_3_262
*1241 FILLER_3_274
*1242 FILLER_3_281
*1243 FILLER_3_293
*1244 FILLER_3_3
*1245 FILLER_3_36
*1246 FILLER_3_48
*1247 FILLER_3_57
*1248 FILLER_3_69
*1249 FILLER_3_81
*1250 FILLER_3_93
*1251 FILLER_40_109
*1252 FILLER_40_121
*1253 FILLER_40_133
*1254 FILLER_40_139
*1255 FILLER_40_141
*1256 FILLER_40_15
*1257 FILLER_40_153
*1258 FILLER_40_165
*1259 FILLER_40_177
*1260 FILLER_40_189
*1261 FILLER_40_195
*1262 FILLER_40_197
*1263 FILLER_40_209
*1264 FILLER_40_221
*1265 FILLER_40_233
*1266 FILLER_40_245
*1267 FILLER_40_251
*1268 FILLER_40_253
*1269 FILLER_40_265
*1270 FILLER_40_27
*1271 FILLER_40_277
*1272 FILLER_40_289
*1273 FILLER_40_29
*1274 FILLER_40_297
*1275 FILLER_40_3
*1276 FILLER_40_41
*1277 FILLER_40_53
*1278 FILLER_40_65
*1279 FILLER_40_73
*1280 FILLER_40_79
*1281 FILLER_40_83
*1282 FILLER_40_85
*1283 FILLER_40_97
*1284 FILLER_41_105
*1285 FILLER_41_111
*1286 FILLER_41_113
*1287 FILLER_41_125
*1288 FILLER_41_137
*1289 FILLER_41_149
*1290 FILLER_41_15
*1291 FILLER_41_161
*1292 FILLER_41_167
*1293 FILLER_41_169
*1294 FILLER_41_181
*1295 FILLER_41_193
*1296 FILLER_41_205
*1297 FILLER_41_217
*1298 FILLER_41_223
*1299 FILLER_41_225
*1300 FILLER_41_237
*1301 FILLER_41_249
*1302 FILLER_41_261
*1303 FILLER_41_27
*1304 FILLER_41_273
*1305 FILLER_41_279
*1306 FILLER_41_281
*1307 FILLER_41_293
*1308 FILLER_41_3
*1309 FILLER_41_39
*1310 FILLER_41_51
*1311 FILLER_41_55
*1312 FILLER_41_57
*1313 FILLER_41_69
*1314 FILLER_41_81
*1315 FILLER_41_93
*1316 FILLER_42_109
*1317 FILLER_42_121
*1318 FILLER_42_133
*1319 FILLER_42_139
*1320 FILLER_42_141
*1321 FILLER_42_15
*1322 FILLER_42_153
*1323 FILLER_42_165
*1324 FILLER_42_177
*1325 FILLER_42_189
*1326 FILLER_42_195
*1327 FILLER_42_197
*1328 FILLER_42_209
*1329 FILLER_42_221
*1330 FILLER_42_233
*1331 FILLER_42_245
*1332 FILLER_42_251
*1333 FILLER_42_253
*1334 FILLER_42_265
*1335 FILLER_42_27
*1336 FILLER_42_277
*1337 FILLER_42_289
*1338 FILLER_42_29
*1339 FILLER_42_297
*1340 FILLER_42_3
*1341 FILLER_42_41
*1342 FILLER_42_53
*1343 FILLER_42_61
*1344 FILLER_42_73
*1345 FILLER_42_81
*1346 FILLER_42_85
*1347 FILLER_42_97
*1348 FILLER_43_102
*1349 FILLER_43_110
*1350 FILLER_43_113
*1351 FILLER_43_125
*1352 FILLER_43_137
*1353 FILLER_43_149
*1354 FILLER_43_15
*1355 FILLER_43_161
*1356 FILLER_43_167
*1357 FILLER_43_169
*1358 FILLER_43_181
*1359 FILLER_43_193
*1360 FILLER_43_205
*1361 FILLER_43_217
*1362 FILLER_43_223
*1363 FILLER_43_225
*1364 FILLER_43_237
*1365 FILLER_43_249
*1366 FILLER_43_261
*1367 FILLER_43_27
*1368 FILLER_43_273
*1369 FILLER_43_279
*1370 FILLER_43_281
*1371 FILLER_43_293
*1372 FILLER_43_3
*1373 FILLER_43_39
*1374 FILLER_43_51
*1375 FILLER_43_55
*1376 FILLER_43_57
*1377 FILLER_43_69
*1378 FILLER_43_81
*1379 FILLER_43_93
*1380 FILLER_44_109
*1381 FILLER_44_121
*1382 FILLER_44_133
*1383 FILLER_44_139
*1384 FILLER_44_141
*1385 FILLER_44_15
*1386 FILLER_44_153
*1387 FILLER_44_165
*1388 FILLER_44_177
*1389 FILLER_44_189
*1390 FILLER_44_195
*1391 FILLER_44_197
*1392 FILLER_44_209
*1393 FILLER_44_221
*1394 FILLER_44_233
*1395 FILLER_44_245
*1396 FILLER_44_251
*1397 FILLER_44_253
*1398 FILLER_44_265
*1399 FILLER_44_27
*1400 FILLER_44_277
*1401 FILLER_44_289
*1402 FILLER_44_29
*1403 FILLER_44_297
*1404 FILLER_44_3
*1405 FILLER_44_41
*1406 FILLER_44_53
*1407 FILLER_44_65
*1408 FILLER_44_77
*1409 FILLER_44_83
*1410 FILLER_44_85
*1411 FILLER_44_97
*1412 FILLER_45_105
*1413 FILLER_45_111
*1414 FILLER_45_113
*1415 FILLER_45_125
*1416 FILLER_45_137
*1417 FILLER_45_149
*1418 FILLER_45_15
*1419 FILLER_45_161
*1420 FILLER_45_167
*1421 FILLER_45_169
*1422 FILLER_45_181
*1423 FILLER_45_193
*1424 FILLER_45_205
*1425 FILLER_45_217
*1426 FILLER_45_223
*1427 FILLER_45_225
*1428 FILLER_45_237
*1429 FILLER_45_249
*1430 FILLER_45_261
*1431 FILLER_45_27
*1432 FILLER_45_273
*1433 FILLER_45_279
*1434 FILLER_45_281
*1435 FILLER_45_293
*1436 FILLER_45_3
*1437 FILLER_45_39
*1438 FILLER_45_49
*1439 FILLER_45_55
*1440 FILLER_45_57
*1441 FILLER_45_69
*1442 FILLER_45_81
*1443 FILLER_45_93
*1444 FILLER_46_102
*1445 FILLER_46_11
*1446 FILLER_46_114
*1447 FILLER_46_126
*1448 FILLER_46_138
*1449 FILLER_46_141
*1450 FILLER_46_153
*1451 FILLER_46_16
*1452 FILLER_46_165
*1453 FILLER_46_177
*1454 FILLER_46_189
*1455 FILLER_46_195
*1456 FILLER_46_197
*1457 FILLER_46_209
*1458 FILLER_46_221
*1459 FILLER_46_233
*1460 FILLER_46_245
*1461 FILLER_46_251
*1462 FILLER_46_253
*1463 FILLER_46_265
*1464 FILLER_46_277
*1465 FILLER_46_289
*1466 FILLER_46_29
*1467 FILLER_46_297
*1468 FILLER_46_3
*1469 FILLER_46_41
*1470 FILLER_46_47
*1471 FILLER_46_59
*1472 FILLER_46_71
*1473 FILLER_46_83
*1474 FILLER_46_90
*1475 FILLER_47_105
*1476 FILLER_47_111
*1477 FILLER_47_113
*1478 FILLER_47_125
*1479 FILLER_47_137
*1480 FILLER_47_149
*1481 FILLER_47_15
*1482 FILLER_47_161
*1483 FILLER_47_167
*1484 FILLER_47_169
*1485 FILLER_47_181
*1486 FILLER_47_193
*1487 FILLER_47_205
*1488 FILLER_47_217
*1489 FILLER_47_223
*1490 FILLER_47_225
*1491 FILLER_47_237
*1492 FILLER_47_249
*1493 FILLER_47_261
*1494 FILLER_47_27
*1495 FILLER_47_273
*1496 FILLER_47_279
*1497 FILLER_47_281
*1498 FILLER_47_293
*1499 FILLER_47_3
*1500 FILLER_47_39
*1501 FILLER_47_51
*1502 FILLER_47_55
*1503 FILLER_47_57
*1504 FILLER_47_69
*1505 FILLER_47_81
*1506 FILLER_47_93
*1507 FILLER_48_103
*1508 FILLER_48_112
*1509 FILLER_48_124
*1510 FILLER_48_136
*1511 FILLER_48_141
*1512 FILLER_48_15
*1513 FILLER_48_153
*1514 FILLER_48_165
*1515 FILLER_48_177
*1516 FILLER_48_189
*1517 FILLER_48_195
*1518 FILLER_48_197
*1519 FILLER_48_209
*1520 FILLER_48_221
*1521 FILLER_48_233
*1522 FILLER_48_245
*1523 FILLER_48_251
*1524 FILLER_48_253
*1525 FILLER_48_265
*1526 FILLER_48_27
*1527 FILLER_48_277
*1528 FILLER_48_289
*1529 FILLER_48_29
*1530 FILLER_48_297
*1531 FILLER_48_3
*1532 FILLER_48_41
*1533 FILLER_48_53
*1534 FILLER_48_65
*1535 FILLER_48_77
*1536 FILLER_48_83
*1537 FILLER_48_85
*1538 FILLER_48_97
*1539 FILLER_49_105
*1540 FILLER_49_111
*1541 FILLER_49_113
*1542 FILLER_49_125
*1543 FILLER_49_137
*1544 FILLER_49_149
*1545 FILLER_49_15
*1546 FILLER_49_161
*1547 FILLER_49_167
*1548 FILLER_49_169
*1549 FILLER_49_181
*1550 FILLER_49_193
*1551 FILLER_49_205
*1552 FILLER_49_217
*1553 FILLER_49_223
*1554 FILLER_49_225
*1555 FILLER_49_237
*1556 FILLER_49_249
*1557 FILLER_49_261
*1558 FILLER_49_27
*1559 FILLER_49_273
*1560 FILLER_49_279
*1561 FILLER_49_281
*1562 FILLER_49_293
*1563 FILLER_49_3
*1564 FILLER_49_39
*1565 FILLER_49_51
*1566 FILLER_49_55
*1567 FILLER_49_57
*1568 FILLER_49_69
*1569 FILLER_49_81
*1570 FILLER_49_93
*1571 FILLER_4_109
*1572 FILLER_4_121
*1573 FILLER_4_133
*1574 FILLER_4_139
*1575 FILLER_4_141
*1576 FILLER_4_153
*1577 FILLER_4_165
*1578 FILLER_4_177
*1579 FILLER_4_189
*1580 FILLER_4_195
*1581 FILLER_4_197
*1582 FILLER_4_209
*1583 FILLER_4_221
*1584 FILLER_4_233
*1585 FILLER_4_24
*1586 FILLER_4_245
*1587 FILLER_4_251
*1588 FILLER_4_253
*1589 FILLER_4_265
*1590 FILLER_4_277
*1591 FILLER_4_289
*1592 FILLER_4_297
*1593 FILLER_4_3
*1594 FILLER_4_48
*1595 FILLER_4_59
*1596 FILLER_4_7
*1597 FILLER_4_71
*1598 FILLER_4_78
*1599 FILLER_4_85
*1600 FILLER_4_97
*1601 FILLER_50_109
*1602 FILLER_50_121
*1603 FILLER_50_133
*1604 FILLER_50_139
*1605 FILLER_50_141
*1606 FILLER_50_15
*1607 FILLER_50_153
*1608 FILLER_50_165
*1609 FILLER_50_177
*1610 FILLER_50_189
*1611 FILLER_50_195
*1612 FILLER_50_197
*1613 FILLER_50_209
*1614 FILLER_50_221
*1615 FILLER_50_233
*1616 FILLER_50_245
*1617 FILLER_50_251
*1618 FILLER_50_253
*1619 FILLER_50_265
*1620 FILLER_50_27
*1621 FILLER_50_277
*1622 FILLER_50_289
*1623 FILLER_50_29
*1624 FILLER_50_297
*1625 FILLER_50_3
*1626 FILLER_50_41
*1627 FILLER_50_53
*1628 FILLER_50_65
*1629 FILLER_50_77
*1630 FILLER_50_83
*1631 FILLER_50_85
*1632 FILLER_50_97
*1633 FILLER_51_105
*1634 FILLER_51_111