*SPEF "ieee 1481-1999"
*DESIGN "luthor2k_top_tto"
*DATE "11:11:11 Fri 11 11, 1111"
*VENDOR "OpenRCX"
*PROGRAM "Parallel Extraction"
*VERSION "1.0"
*DESIGN_FLOW "NAME_SCOPE LOCAL" "PIN_CAP NONE"
*DIVIDER /
*DELIMITER :
*BUS_DELIMITER []
*T_UNIT 1 NS
*C_UNIT 1 PF
*R_UNIT 1 OHM
*L_UNIT 1 HENRY

*NAME_MAP
*1 io_in[0]
*2 io_in[1]
*3 io_in[2]
*4 io_in[3]
*5 io_in[4]
*6 io_in[5]
*7 io_in[6]
*8 io_in[7]
*9 io_out[0]
*10 io_out[1]
*11 net12
*12 io_out[3]
*13 io_out[4]
*14 io_out[5]
*15 io_out[6]
*16 io_out[7]
*19 _000_
*20 _001_
*21 _002_
*22 _003_
*23 _004_
*24 _005_
*25 _006_
*26 _007_
*27 _008_
*28 _009_
*29 _010_
*30 _011_
*31 _012_
*32 _013_
*33 _014_
*34 _015_
*35 _016_
*36 _017_
*37 _018_
*38 _019_
*39 _020_
*40 _021_
*41 _022_
*42 _023_
*43 _024_
*44 _025_
*45 _026_
*46 _027_
*47 _028_
*48 _029_
*49 _030_
*50 _031_
*51 _032_
*52 _033_
*53 _034_
*54 _035_
*55 _036_
*56 _037_
*57 _038_
*58 _039_
*59 _040_
*60 _041_
*61 _042_
*62 _043_
*63 _044_
*64 _045_
*65 _046_
*66 _047_
*67 _048_
*68 _049_
*69 _050_
*70 _051_
*71 _052_
*72 _053_
*73 _054_
*74 _055_
*75 _056_
*76 _057_
*77 _058_
*78 _059_
*79 _060_
*80 _061_
*81 _062_
*82 _063_
*83 _064_
*84 _065_
*85 _066_
*86 _067_
*87 _068_
*88 _069_
*89 _070_
*90 _071_
*91 _072_
*92 _073_
*93 _074_
*94 _075_
*95 _076_
*96 _077_
*97 _078_
*98 _079_
*99 _080_
*100 _081_
*101 _082_
*102 _083_
*103 _084_
*104 _085_
*105 _086_
*106 _087_
*107 _088_
*108 _089_
*109 _090_
*110 _091_
*111 _092_
*112 _093_
*113 _094_
*114 _095_
*115 _096_
*116 _097_
*117 _098_
*118 _099_
*119 _100_
*120 _101_
*121 _102_
*122 _103_
*123 _104_
*124 _105_
*125 _106_
*126 _107_
*127 _108_
*128 _109_
*129 _110_
*130 _111_
*131 _112_
*132 _113_
*133 _114_
*134 _115_
*135 _116_
*136 _117_
*137 _118_
*138 _119_
*139 _120_
*140 _121_
*141 _122_
*142 _123_
*143 _124_
*144 _125_
*145 _126_
*146 _127_
*147 _128_
*148 _129_
*149 _130_
*150 _131_
*151 _132_
*152 _133_
*153 _134_
*154 _135_
*155 _136_
*156 _137_
*157 _138_
*158 _139_
*159 _140_
*160 _141_
*161 _142_
*162 _143_
*163 _144_
*164 _145_
*165 _146_
*166 _147_
*167 _148_
*168 _149_
*169 _150_
*170 _151_
*171 _152_
*172 _153_
*173 _154_
*174 _155_
*175 _156_
*176 _157_
*177 _158_
*178 _159_
*179 _160_
*180 _161_
*181 _162_
*182 _163_
*183 _164_
*184 _165_
*185 _166_
*186 _167_
*187 _168_
*188 _169_
*189 _170_
*190 _171_
*191 _172_
*192 _173_
*193 _174_
*194 _175_
*195 _176_
*196 _177_
*197 _178_
*198 _179_
*199 _180_
*200 _181_
*201 _182_
*202 _183_
*203 _184_
*204 _185_
*205 _186_
*206 _187_
*207 _188_
*208 _189_
*209 _190_
*210 _191_
*211 _192_
*212 _193_
*213 _194_
*214 _195_
*215 _196_
*216 _197_
*217 _198_
*218 _199_
*219 _200_
*220 _201_
*221 _202_
*222 _203_
*223 _204_
*224 _205_
*225 _206_
*226 _207_
*227 _208_
*228 _209_
*229 _210_
*230 _211_
*231 _212_
*232 _213_
*233 _214_
*234 _215_
*235 _216_
*236 clknet_0_io_in[0]
*237 clknet_1_0__leaf_io_in[0]
*238 clknet_1_1__leaf_io_in[0]
*239 main\.v4a3d40\.r_Bit_Index\[0\]
*240 main\.v4a3d40\.r_Bit_Index\[1\]
*241 main\.v4a3d40\.r_Bit_Index\[2\]
*242 main\.v4a3d40\.r_Clock_Count\[0\]
*243 main\.v4a3d40\.r_Clock_Count\[1\]
*244 main\.v4a3d40\.r_Clock_Count\[2\]
*245 main\.v4a3d40\.r_Clock_Count\[3\]
*246 main\.v4a3d40\.r_Clock_Count\[4\]
*247 main\.v4a3d40\.r_Clock_Count\[5\]
*248 main\.v4a3d40\.r_Clock_Count\[6\]
*249 main\.v4a3d40\.r_Clock_Count\[7\]
*250 main\.v4a3d40\.r_Rx_DV
*251 main\.v4a3d40\.r_Rx_Data
*252 main\.v4a3d40\.r_Rx_Data_R
*253 main\.v4a3d40\.r_SM_Main\[0\]
*254 main\.v4a3d40\.r_SM_Main\[1\]
*255 main\.v4a3d40\.r_SM_Main\[2\]
*256 main\.v9a0385\.ASCII_OUT\[0\]
*257 main\.v9a0385\.ASCII_OUT\[1\]
*258 main\.v9a0385\.ASCII_OUT\[2\]
*259 main\.v9a0385\.ASCII_OUT\[3\]
*260 main\.v9a0385\.ASCII_OUT\[4\]
*261 main\.v9a0385\.ASCII_OUT\[5\]
*262 main\.v9a0385\.ASCII_OUT\[6\]
*263 main\.v9a0385\.enable_numbers
*264 main\.vc9d136\.r_Bit_Index\[0\]
*265 main\.vc9d136\.r_Bit_Index\[1\]
*266 main\.vc9d136\.r_Bit_Index\[2\]
*267 main\.vc9d136\.r_SM_Main\[0\]
*268 main\.vc9d136\.r_SM_Main\[1\]
*269 main\.vc9d136\.r_SM_Main\[2\]
*270 main\.vc9d136\.r_Tx_Serial
*271 net1
*272 net10
*273 net11
*274 net2
*275 net3
*276 net4
*277 net5
*278 net6
*279 net7
*280 net8
*281 net9
*282 FILLER_0_109
*283 FILLER_0_113
*284 FILLER_0_125
*285 FILLER_0_137
*286 FILLER_0_141
*287 FILLER_0_15
*288 FILLER_0_153
*289 FILLER_0_165
*290 FILLER_0_169
*291 FILLER_0_181
*292 FILLER_0_193
*293 FILLER_0_197
*294 FILLER_0_209
*295 FILLER_0_221
*296 FILLER_0_225
*297 FILLER_0_237
*298 FILLER_0_249
*299 FILLER_0_253
*300 FILLER_0_265
*301 FILLER_0_27
*302 FILLER_0_277
*303 FILLER_0_281
*304 FILLER_0_29
*305 FILLER_0_293
*306 FILLER_0_3
*307 FILLER_0_41
*308 FILLER_0_53
*309 FILLER_0_57
*310 FILLER_0_69
*311 FILLER_0_81
*312 FILLER_0_85
*313 FILLER_0_97
*314 FILLER_10_109
*315 FILLER_10_121
*316 FILLER_10_133
*317 FILLER_10_139
*318 FILLER_10_141
*319 FILLER_10_153
*320 FILLER_10_165
*321 FILLER_10_177
*322 FILLER_10_189
*323 FILLER_10_19
*324 FILLER_10_195
*325 FILLER_10_197
*326 FILLER_10_209
*327 FILLER_10_221
*328 FILLER_10_233
*329 FILLER_10_245
*330 FILLER_10_251
*331 FILLER_10_253
*332 FILLER_10_265
*333 FILLER_10_27
*334 FILLER_10_277
*335 FILLER_10_289
*336 FILLER_10_29
*337 FILLER_10_297
*338 FILLER_10_35
*339 FILLER_10_52
*340 FILLER_10_64
*341 FILLER_10_76
*342 FILLER_10_85
*343 FILLER_10_97
*344 FILLER_11_105
*345 FILLER_11_111
*346 FILLER_11_113
*347 FILLER_11_125
*348 FILLER_11_137
*349 FILLER_11_149
*350 FILLER_11_15
*351 FILLER_11_161
*352 FILLER_11_167
*353 FILLER_11_169
*354 FILLER_11_181
*355 FILLER_11_193
*356 FILLER_11_205
*357 FILLER_11_217
*358 FILLER_11_223
*359 FILLER_11_225
*360 FILLER_11_237
*361 FILLER_11_249
*362 FILLER_11_261
*363 FILLER_11_273
*364 FILLER_11_279
*365 FILLER_11_281
*366 FILLER_11_293
*367 FILLER_11_3
*368 FILLER_11_36
*369 FILLER_11_48
*370 FILLER_11_57
*371 FILLER_11_69
*372 FILLER_11_81
*373 FILLER_11_93
*374 FILLER_12_109
*375 FILLER_12_121
*376 FILLER_12_133
*377 FILLER_12_139
*378 FILLER_12_141
*379 FILLER_12_15
*380 FILLER_12_153
*381 FILLER_12_165
*382 FILLER_12_177
*383 FILLER_12_189
*384 FILLER_12_195
*385 FILLER_12_197
*386 FILLER_12_209
*387 FILLER_12_221
*388 FILLER_12_233
*389 FILLER_12_245
*390 FILLER_12_251
*391 FILLER_12_253
*392 FILLER_12_265
*393 FILLER_12_27
*394 FILLER_12_277
*395 FILLER_12_289
*396 FILLER_12_29
*397 FILLER_12_297
*398 FILLER_12_3
*399 FILLER_12_41
*400 FILLER_12_53
*401 FILLER_12_65
*402 FILLER_12_77
*403 FILLER_12_83
*404 FILLER_12_85
*405 FILLER_12_97
*406 FILLER_13_105
*407 FILLER_13_111
*408 FILLER_13_113
*409 FILLER_13_125
*410 FILLER_13_137
*411 FILLER_13_149
*412 FILLER_13_15
*413 FILLER_13_161
*414 FILLER_13_167
*415 FILLER_13_169
*416 FILLER_13_181
*417 FILLER_13_193
*418 FILLER_13_205
*419 FILLER_13_217
*420 FILLER_13_223
*421 FILLER_13_225
*422 FILLER_13_237
*423 FILLER_13_249
*424 FILLER_13_261
*425 FILLER_13_27
*426 FILLER_13_273
*427 FILLER_13_279
*428 FILLER_13_281
*429 FILLER_13_293
*430 FILLER_13_3
*431 FILLER_13_39
*432 FILLER_13_51
*433 FILLER_13_55
*434 FILLER_13_57
*435 FILLER_13_69
*436 FILLER_13_81
*437 FILLER_13_93
*438 FILLER_14_109
*439 FILLER_14_121
*440 FILLER_14_133
*441 FILLER_14_139
*442 FILLER_14_141
*443 FILLER_14_15
*444 FILLER_14_153
*445 FILLER_14_165
*446 FILLER_14_177
*447 FILLER_14_189
*448 FILLER_14_195
*449 FILLER_14_197
*450 FILLER_14_209
*451 FILLER_14_221
*452 FILLER_14_233
*453 FILLER_14_245
*454 FILLER_14_251
*455 FILLER_14_253
*456 FILLER_14_265
*457 FILLER_14_27
*458 FILLER_14_277
*459 FILLER_14_289
*460 FILLER_14_297
*461 FILLER_14_3
*462 FILLER_14_32
*463 FILLER_14_44
*464 FILLER_14_56
*465 FILLER_14_68
*466 FILLER_14_80
*467 FILLER_14_85
*468 FILLER_14_97
*469 FILLER_15_105
*470 FILLER_15_11
*471 FILLER_15_111
*472 FILLER_15_113
*473 FILLER_15_125
*474 FILLER_15_137
*475 FILLER_15_149
*476 FILLER_15_161
*477 FILLER_15_167
*478 FILLER_15_169
*479 FILLER_15_18
*480 FILLER_15_181
*481 FILLER_15_193
*482 FILLER_15_205
*483 FILLER_15_217
*484 FILLER_15_223
*485 FILLER_15_225
*486 FILLER_15_237
*487 FILLER_15_249
*488 FILLER_15_261
*489 FILLER_15_273
*490 FILLER_15_279
*491 FILLER_15_281
*492 FILLER_15_293
*493 FILLER_15_3
*494 FILLER_15_38
*495 FILLER_15_50
*496 FILLER_15_57
*497 FILLER_15_69
*498 FILLER_15_81
*499 FILLER_15_93
*500 FILLER_16_102
*501 FILLER_16_114
*502 FILLER_16_126
*503 FILLER_16_138
*504 FILLER_16_141
*505 FILLER_16_153
*506 FILLER_16_165
*507 FILLER_16_177
*508 FILLER_16_189
*509 FILLER_16_195
*510 FILLER_16_197
*511 FILLER_16_209
*512 FILLER_16_21
*513 FILLER_16_221
*514 FILLER_16_233
*515 FILLER_16_245
*516 FILLER_16_251
*517 FILLER_16_253
*518 FILLER_16_265
*519 FILLER_16_27
*520 FILLER_16_277
*521 FILLER_16_289
*522 FILLER_16_29
*523 FILLER_16_297
*524 FILLER_16_3
*525 FILLER_16_33
*526 FILLER_16_43
*527 FILLER_16_57
*528 FILLER_16_69
*529 FILLER_16_81
*530 FILLER_16_90
*531 FILLER_17_102
*532 FILLER_17_110
*533 FILLER_17_113
*534 FILLER_17_118
*535 FILLER_17_130
*536 FILLER_17_14
*537 FILLER_17_142
*538 FILLER_17_154
*539 FILLER_17_166
*540 FILLER_17_169
*541 FILLER_17_181
*542 FILLER_17_193
*543 FILLER_17_20
*544 FILLER_17_205
*545 FILLER_17_217
*546 FILLER_17_223
*547 FILLER_17_225
*548 FILLER_17_237
*549 FILLER_17_249
*550 FILLER_17_261
*551 FILLER_17_273
*552 FILLER_17_279
*553 FILLER_17_281
*554 FILLER_17_293
*555 FILLER_17_3
*556 FILLER_17_37
*557 FILLER_17_46
*558 FILLER_17_54
*559 FILLER_17_60
*560 FILLER_17_7
*561 FILLER_17_72
*562 FILLER_17_78
*563 FILLER_17_82
*564 FILLER_18_102
*565 FILLER_18_111
*566 FILLER_18_131
*567 FILLER_18_139
*568 FILLER_18_141
*569 FILLER_18_153
*570 FILLER_18_165
*571 FILLER_18_177
*572 FILLER_18_189
*573 FILLER_18_19
*574 FILLER_18_195
*575 FILLER_18_197
*576 FILLER_18_209
*577 FILLER_18_221
*578 FILLER_18_233
*579 FILLER_18_245
*580 FILLER_18_251
*581 FILLER_18_253
*582 FILLER_18_265
*583 FILLER_18_27
*584 FILLER_18_277
*585 FILLER_18_289
*586 FILLER_18_297
*587 FILLER_18_36
*588 FILLER_18_48
*589 FILLER_18_57
*590 FILLER_18_64
*591 FILLER_18_76
*592 FILLER_18_92
*593 FILLER_18_96
*594 FILLER_19_104
*595 FILLER_19_108
*596 FILLER_19_116
*597 FILLER_19_123
*598 FILLER_19_13
*599 FILLER_19_135
*600 FILLER_19_147
*601 FILLER_19_159
*602 FILLER_19_167
*603 FILLER_19_169
*604 FILLER_19_181
*605 FILLER_19_193
*606 FILLER_19_205
*607 FILLER_19_217
*608 FILLER_19_223
*609 FILLER_19_225
*610 FILLER_19_237
*611 FILLER_19_249
*612 FILLER_19_261
*613 FILLER_19_273
*614 FILLER_19_279
*615 FILLER_19_281
*616 FILLER_19_293
*617 FILLER_19_3
*618 FILLER_19_37
*619 FILLER_19_49
*620 FILLER_19_55
*621 FILLER_19_61
*622 FILLER_19_69
*623 FILLER_19_75
*624 FILLER_19_86
*625 FILLER_19_9
*626 FILLER_19_92
*627 FILLER_19_96
*628 FILLER_1_105
*629 FILLER_1_111
*630 FILLER_1_113
*631 FILLER_1_125
*632 FILLER_1_137
*633 FILLER_1_149
*634 FILLER_1_15
*635 FILLER_1_161
*636 FILLER_1_167
*637 FILLER_1_169
*638 FILLER_1_181
*639 FILLER_1_193
*640 FILLER_1_205
*641 FILLER_1_217
*642 FILLER_1_223
*643 FILLER_1_225
*644 FILLER_1_237
*645 FILLER_1_249
*646 FILLER_1_261
*647 FILLER_1_27
*648 FILLER_1_273
*649 FILLER_1_279
*650 FILLER_1_281
*651 FILLER_1_293
*652 FILLER_1_3
*653 FILLER_1_39
*654 FILLER_1_51
*655 FILLER_1_55
*656 FILLER_1_57
*657 FILLER_1_69
*658 FILLER_1_81
*659 FILLER_1_93
*660 FILLER_20_108
*661 FILLER_20_119
*662 FILLER_20_131
*663 FILLER_20_139
*664 FILLER_20_141
*665 FILLER_20_15
*666 FILLER_20_153
*667 FILLER_20_165
*668 FILLER_20_177
*669 FILLER_20_189
*670 FILLER_20_195
*671 FILLER_20_197
*672 FILLER_20_209
*673 FILLER_20_221
*674 FILLER_20_233
*675 FILLER_20_24
*676 FILLER_20_245
*677 FILLER_20_251
*678 FILLER_20_253
*679 FILLER_20_265
*680 FILLER_20_277
*681 FILLER_20_289
*682 FILLER_20_297
*683 FILLER_20_45
*684 FILLER_20_55
*685 FILLER_20_6
*686 FILLER_20_63
*687 FILLER_20_80
*688 FILLER_20_88
*689 FILLER_21_107
*690 FILLER_21_111
*691 FILLER_21_113
*692 FILLER_21_12
*693 FILLER_21_131
*694 FILLER_21_143
*695 FILLER_21_155
*696 FILLER_21_167
*697 FILLER_21_169
*698 FILLER_21_181
*699 FILLER_21_193
*700 FILLER_21_205
*701 FILLER_21_217
*702 FILLER_21_223
*703 FILLER_21_225
*704 FILLER_21_237
*705 FILLER_21_249
*706 FILLER_21_261
*707 FILLER_21_273
*708 FILLER_21_279
*709 FILLER_21_281
*710 FILLER_21_293
*711 FILLER_21_3
*712 FILLER_21_36
*713 FILLER_21_47
*714 FILLER_21_55
*715 FILLER_21_60
*716 FILLER_21_71
*717 FILLER_21_81
*718 FILLER_21_93
*719 FILLER_22_100
*720 FILLER_22_108
*721 FILLER_22_119
*722 FILLER_22_126
*723 FILLER_22_138
*724 FILLER_22_141
*725 FILLER_22_153
*726 FILLER_22_165
*727 FILLER_22_177
*728 FILLER_22_189
*729 FILLER_22_19
*730 FILLER_22_195
*731 FILLER_22_197
*732 FILLER_22_209
*733 FILLER_22_221
*734 FILLER_22_233
*735 FILLER_22_245
*736 FILLER_22_251
*737 FILLER_22_253
*738 FILLER_22_265
*739 FILLER_22_27
*740 FILLER_22_277
*741 FILLER_22_289
*742 FILLER_22_297
*743 FILLER_22_45
*744 FILLER_22_54
*745 FILLER_22_61
*746 FILLER_22_73
*747 FILLER_22_81
*748 FILLER_22_93
*749 FILLER_23_107
*750 FILLER_23_111
*751 FILLER_23_119
*752 FILLER_23_123
*753 FILLER_23_129
*754 FILLER_23_141
*755 FILLER_23_15
*756 FILLER_23_153
*757 FILLER_23_165
*758 FILLER_23_169
*759 FILLER_23_181
*760 FILLER_23_193
*761 FILLER_23_205
*762 FILLER_23_217
*763 FILLER_23_223
*764 FILLER_23_225
*765 FILLER_23_237
*766 FILLER_23_249
*767 FILLER_23_26
*768 FILLER_23_261
*769 FILLER_23_273
*770 FILLER_23_279
*771 FILLER_23_281
*772 FILLER_23_293
*773 FILLER_23_3
*774 FILLER_23_38
*775 FILLER_23_42
*776 FILLER_23_52
*777 FILLER_23_73
*778 FILLER_23_79
*779 FILLER_23_88
*780 FILLER_23_94
*781 FILLER_23_98
*782 FILLER_24_104
*783 FILLER_24_116
*784 FILLER_24_136
*785 FILLER_24_141
*786 FILLER_24_15
*787 FILLER_24_153
*788 FILLER_24_165
*789 FILLER_24_177
*790 FILLER_24_189
*791 FILLER_24_195
*792 FILLER_24_197
*793 FILLER_24_209
*794 FILLER_24_221
*795 FILLER_24_233
*796 FILLER_24_245
*797 FILLER_24_251
*798 FILLER_24_253
*799 FILLER_24_265
*800 FILLER_24_27
*801 FILLER_24_277
*802 FILLER_24_289
*803 FILLER_24_29
*804 FILLER_24_297
*805 FILLER_24_3
*806 FILLER_24_37
*807 FILLER_24_45
*808 FILLER_24_60
*809 FILLER_24_80
*810 FILLER_24_85
*811 FILLER_24_97
*812 FILLER_25_107
*813 FILLER_25_111
*814 FILLER_25_113
*815 FILLER_25_120
*816 FILLER_25_124
*817 FILLER_25_128
*818 FILLER_25_135
*819 FILLER_25_147
*820 FILLER_25_159
*821 FILLER_25_167
*822 FILLER_25_169
*823 FILLER_25_181
*824 FILLER_25_193
*825 FILLER_25_205
*826 FILLER_25_21
*827 FILLER_25_217
*828 FILLER_25_223
*829 FILLER_25_225
*830 FILLER_25_237
*831 FILLER_25_249
*832 FILLER_25_261
*833 FILLER_25_27
*834 FILLER_25_273
*835 FILLER_25_279
*836 FILLER_25_281
*837 FILLER_25_293
*838 FILLER_25_3
*839 FILLER_25_49
*840 FILLER_25_55
*841 FILLER_25_66
*842 FILLER_25_73
*843 FILLER_25_81
*844 FILLER_25_86
*845 FILLER_25_9
*846 FILLER_25_98
*847 FILLER_26_100
*848 FILLER_26_106
*849 FILLER_26_117
*850 FILLER_26_124
*851 FILLER_26_136
*852 FILLER_26_141
*853 FILLER_26_153
*854 FILLER_26_165
*855 FILLER_26_177
*856 FILLER_26_189
*857 FILLER_26_195
*858 FILLER_26_197
*859 FILLER_26_209
*860 FILLER_26_221
*861 FILLER_26_233
*862 FILLER_26_24
*863 FILLER_26_245
*864 FILLER_26_251
*865 FILLER_26_253
*866 FILLER_26_265
*867 FILLER_26_277
*868 FILLER_26_289
*869 FILLER_26_29
*870 FILLER_26_297
*871 FILLER_26_3
*872 FILLER_26_57
*873 FILLER_26_7
*874 FILLER_26_77
*875 FILLER_26_83
*876 FILLER_26_85
*877 FILLER_26_93
*878 FILLER_27_105
*879 FILLER_27_11
*880 FILLER_27_111
*881 FILLER_27_113
*882 FILLER_27_120
*883 FILLER_27_130
*884 FILLER_27_142
*885 FILLER_27_154
*886 FILLER_27_166
*887 FILLER_27_169
*888 FILLER_27_18
*889 FILLER_27_181
*890 FILLER_27_193
*891 FILLER_27_205
*892 FILLER_27_217
*893 FILLER_27_223
*894 FILLER_27_225
*895 FILLER_27_237
*896 FILLER_27_249
*897 FILLER_27_261
*898 FILLER_27_273
*899 FILLER_27_279
*900 FILLER_27_281
*901 FILLER_27_293
*902 FILLER_27_3
*903 FILLER_27_38
*904 FILLER_27_50
*905 FILLER_27_60
*906 FILLER_27_7
*907 FILLER_27_80
*908 FILLER_27_94
*909 FILLER_28_101
*910 FILLER_28_108
*911 FILLER_28_116
*912 FILLER_28_135
*913 FILLER_28_139
*914 FILLER_28_141
*915 FILLER_28_153
*916 FILLER_28_165
*917 FILLER_28_177
*918 FILLER_28_189
*919 FILLER_28_195
*920 FILLER_28_197
*921 FILLER_28_209
*922 FILLER_28_221
*923 FILLER_28_233
*924 FILLER_28_24
*925 FILLER_28_245
*926 FILLER_28_251
*927 FILLER_28_253
*928 FILLER_28_265
*929 FILLER_28_277
*930 FILLER_28_289
*931 FILLER_28_297
*932 FILLER_28_3
*933 FILLER_28_45
*934 FILLER_28_65
*935 FILLER_28_7
*936 FILLER_28_71
*937 FILLER_28_79
*938 FILLER_28_83
*939 FILLER_28_88
*940 FILLER_29_10
*941 FILLER_29_110
*942 FILLER_29_120
*943 FILLER_29_132
*944 FILLER_29_144
*945 FILLER_29_156
*946 FILLER_29_169
*947 FILLER_29_181
*948 FILLER_29_193
*949 FILLER_29_205
*950 FILLER_29_217
*951 FILLER_29_22
*952 FILLER_29_223
*953 FILLER_29_225
*954 FILLER_29_237
*955 FILLER_29_249
*956 FILLER_29_261
*957 FILLER_29_273
*958 FILLER_29_279
*959 FILLER_29_281
*960 FILLER_29_293
*961 FILLER_29_3
*962 FILLER_29_31
*963 FILLER_29_35
*964 FILLER_29_40
*965 FILLER_29_52
*966 FILLER_29_57
*967 FILLER_29_69
*968 FILLER_29_86
*969 FILLER_29_98
*970 FILLER_2_109
*971 FILLER_2_121
*972 FILLER_2_133
*973 FILLER_2_139
*974 FILLER_2_141
*975 FILLER_2_15
*976 FILLER_2_153
*977 FILLER_2_165
*978 FILLER_2_177
*979 FILLER_2_189
*980 FILLER_2_195
*981 FILLER_2_197
*982 FILLER_2_209
*983 FILLER_2_221
*984 FILLER_2_233
*985 FILLER_2_245
*986 FILLER_2_251
*987 FILLER_2_253
*988 FILLER_2_265
*989 FILLER_2_27
*990 FILLER_2_277
*991 FILLER_2_289
*992 FILLER_2_29
*993 FILLER_2_297
*994 FILLER_2_3
*995 FILLER_2_41
*996 FILLER_2_53
*997 FILLER_2_65
*998 FILLER_2_77
*999 FILLER_2_83
*1000 FILLER_2_85
*1001 FILLER_2_97
*1002 FILLER_30_101
*1003 FILLER_30_115
*1004 FILLER_30_125
*1005 FILLER_30_137
*1006 FILLER_30_141
*1007 FILLER_30_153
*1008 FILLER_30_16
*1009 FILLER_30_165
*1010 FILLER_30_177
*1011 FILLER_30_189
*1012 FILLER_30_195
*1013 FILLER_30_197
*1014 FILLER_30_209
*1015 FILLER_30_221
*1016 FILLER_30_233
*1017 FILLER_30_245
*1018 FILLER_30_251
*1019 FILLER_30_253
*1020 FILLER_30_265
*1021 FILLER_30_277
*1022 FILLER_30_289
*1023 FILLER_30_29
*1024 FILLER_30_297
*1025 FILLER_30_3
*1026 FILLER_30_45
*1027 FILLER_30_49
*1028 FILLER_30_62
*1029 FILLER_30_74
*1030 FILLER_30_78
*1031 FILLER_30_85
*1032 FILLER_30_9
*1033 FILLER_30_92
*1034 FILLER_31_101
*1035 FILLER_31_108
*1036 FILLER_31_129
*1037 FILLER_31_14
*1038 FILLER_31_141
*1039 FILLER_31_153
*1040 FILLER_31_165
*1041 FILLER_31_169
*1042 FILLER_31_181
*1043 FILLER_31_193
*1044 FILLER_31_205
*1045 FILLER_31_217
*1046 FILLER_31_223
*1047 FILLER_31_225
*1048 FILLER_31_237
*1049 FILLER_31_24
*1050 FILLER_31_249
*1051 FILLER_31_261
*1052 FILLER_31_273
*1053 FILLER_31_279
*1054 FILLER_31_281
*1055 FILLER_31_293
*1056 FILLER_31_3
*1057 FILLER_31_32
*1058 FILLER_31_40
*1059 FILLER_31_52
*1060 FILLER_31_57
*1061 FILLER_31_73
*1062 FILLER_31_81
*1063 FILLER_31_89
*1064 FILLER_31_93
*1065 FILLER_32_106
*1066 FILLER_32_118
*1067 FILLER_32_130
*1068 FILLER_32_138
*1069 FILLER_32_141
*1070 FILLER_32_15
*1071 FILLER_32_153
*1072 FILLER_32_165
*1073 FILLER_32_177
*1074 FILLER_32_189
*1075 FILLER_32_195
*1076 FILLER_32_197
*1077 FILLER_32_209
*1078 FILLER_32_221
*1079 FILLER_32_233
*1080 FILLER_32_24
*1081 FILLER_32_245
*1082 FILLER_32_251
*1083 FILLER_32_253
*1084 FILLER_32_265
*1085 FILLER_32_277
*1086 FILLER_32_289
*1087 FILLER_32_297
*1088 FILLER_32_3
*1089 FILLER_32_39
*1090 FILLER_32_47
*1091 FILLER_32_58
*1092 FILLER_32_68
*1093 FILLER_32_7
*1094 FILLER_32_75
*1095 FILLER_32_83
*1096 FILLER_32_95
*1097 FILLER_33_101
*1098 FILLER_33_108
*1099 FILLER_33_113
*1100 FILLER_33_125
*1101 FILLER_33_137
*1102 FILLER_33_149
*1103 FILLER_33_161
*1104 FILLER_33_167
*1105 FILLER_33_169
*1106 FILLER_33_181
*1107 FILLER_33_193
*1108 FILLER_33_20
*1109 FILLER_33_205
*1110 FILLER_33_217
*1111 FILLER_33_223
*1112 FILLER_33_225
*1113 FILLER_33_237
*1114 FILLER_33_249
*1115 FILLER_33_261
*1116 FILLER_33_27
*1117 FILLER_33_273
*1118 FILLER_33_279
*1119 FILLER_33_281
*1120 FILLER_33_293
*1121 FILLER_33_3
*1122 FILLER_33_38
*1123 FILLER_33_52
*1124 FILLER_33_57
*1125 FILLER_33_68
*1126 FILLER_33_76
*1127 FILLER_33_8
*1128 FILLER_33_89
*1129 FILLER_33_97
*1130 FILLER_34_117
*1131 FILLER_34_129
*1132 FILLER_34_137
*1133 FILLER_34_141
*1134 FILLER_34_153
*1135 FILLER_34_16
*1136 FILLER_34_165
*1137 FILLER_34_177
*1138 FILLER_34_189
*1139 FILLER_34_195
*1140 FILLER_34_197
*1141 FILLER_34_209
*1142 FILLER_34_221
*1143 FILLER_34_23
*1144 FILLER_34_233
*1145 FILLER_34_245
*1146 FILLER_34_251
*1147 FILLER_34_253
*1148 FILLER_34_265
*1149 FILLER_34_27
*1150 FILLER_34_277
*1151 FILLER_34_289
*1152 FILLER_34_297
*1153 FILLER_34_3
*1154 FILLER_34_33
*1155 FILLER_34_49
*1156 FILLER_34_61
*1157 FILLER_34_67
*1158 FILLER_34_78
*1159 FILLER_34_85
*1160 FILLER_34_97
*1161 FILLER_35_107
*1162 FILLER_35_111
*1163 FILLER_35_113
*1164 FILLER_35_125
*1165 FILLER_35_137
*1166 FILLER_35_149
*1167 FILLER_35_161
*1168 FILLER_35_167
*1169 FILLER_35_169
*1170 FILLER_35_181
*1171 FILLER_35_193
*1172 FILLER_35_205
*1173 FILLER_35_217
*1174 FILLER_35_223
*1175 FILLER_35_225
*1176 FILLER_35_237
*1177 FILLER_35_249
*1178 FILLER_35_261
*1179 FILLER_35_273
*1180 FILLER_35_279
*1181 FILLER_35_281
*1182 FILLER_35_29
*1183 FILLER_35_293
*1184 FILLER_35_3
*1185 FILLER_35_35
*1186 FILLER_35_44
*1187 FILLER_35_51
*1188 FILLER_35_55
*1189 FILLER_35_57
*1190 FILLER_35_66
*1191 FILLER_35_7
*1192 FILLER_35_74
*1193 FILLER_35_91
*1194 FILLER_36_106
*1195 FILLER_36_118
*1196 FILLER_36_130
*1197 FILLER_36_138
*1198 FILLER_36_141
*1199 FILLER_36_153
*1200 FILLER_36_165
*1201 FILLER_36_177
*1202 FILLER_36_18
*1203 FILLER_36_189
*1204 FILLER_36_195
*1205 FILLER_36_197
*1206 FILLER_36_209
*1207 FILLER_36_221
*1208 FILLER_36_233
*1209 FILLER_36_245
*1210 FILLER_36_251
*1211 FILLER_36_253
*1212 FILLER_36_26
*1213 FILLER_36_265
*1214 FILLER_36_277
*1215 FILLER_36_289
*1216 FILLER_36_29
*1217 FILLER_36_297
*1218 FILLER_36_3
*1219 FILLER_36_36
*1220 FILLER_36_48
*1221 FILLER_36_58
*1222 FILLER_36_67
*1223 FILLER_36_7
*1224 FILLER_36_74
*1225 FILLER_36_82
*1226 FILLER_36_85
*1227 FILLER_36_90
*1228 FILLER_36_99
*1229 FILLER_37_10
*1230 FILLER_37_104
*1231 FILLER_37_113
*1232 FILLER_37_125
*1233 FILLER_37_137
*1234 FILLER_37_149
*1235 FILLER_37_15
*1236 FILLER_37_161
*1237 FILLER_37_167
*1238 FILLER_37_169
*1239 FILLER_37_181
*1240 FILLER_37_193
*1241 FILLER_37_205
*1242 FILLER_37_217
*1243 FILLER_37_223
*1244 FILLER_37_225
*1245 FILLER_37_237
*1246 FILLER_37_249
*1247 FILLER_37_261
*1248 FILLER_37_273
*1249 FILLER_37_279
*1250 FILLER_37_281
*1251 FILLER_37_293
*1252 FILLER_37_30
*1253 FILLER_37_41
*1254 FILLER_37_51
*1255 FILLER_37_55
*1256 FILLER_37_57
*1257 FILLER_37_6
*1258 FILLER_37_63
*1259 FILLER_37_76
*1260 FILLER_37_86
*1261 FILLER_37_94
*1262 FILLER_38_10
*1263 FILLER_38_100
*1264 FILLER_38_112
*1265 FILLER_38_124
*1266 FILLER_38_136
*1267 FILLER_38_141
*1268 FILLER_38_153
*1269 FILLER_38_165
*1270 FILLER_38_17
*1271 FILLER_38_177
*1272 FILLER_38_189
*1273 FILLER_38_195
*1274 FILLER_38_197
*1275 FILLER_38_209
*1276 FILLER_38_221
*1277 FILLER_38_233
*1278 FILLER_38_24
*1279 FILLER_38_245
*1280 FILLER_38_251
*1281 FILLER_38_253
*1282 FILLER_38_265
*1283 FILLER_38_277
*1284 FILLER_38_289
*1285 FILLER_38_29
*1286 FILLER_38_297
*1287 FILLER_38_3
*1288 FILLER_38_43
*1289 FILLER_38_51
*1290 FILLER_38_59
*1291 FILLER_38_70
*1292 FILLER_38_79
*1293 FILLER_38_83
*1294 FILLER_38_90
*1295 FILLER_38_96
*1296 FILLER_39_103
*1297 FILLER_39_111
*1298 FILLER_39_113
*1299 FILLER_39_125
*1300 FILLER_39_137
*1301 FILLER_39_149
*1302 FILLER_39_15
*1303 FILLER_39_161
*1304 FILLER_39_167
*1305 FILLER_39_169
*1306 FILLER_39_181
*1307 FILLER_39_193
*1308 FILLER_39_205
*1309 FILLER_39_217
*1310 FILLER_39_22
*1311 FILLER_39_223
*1312 FILLER_39_225
*1313 FILLER_39_237
*1314 FILLER_39_249
*1315 FILLER_39_261
*1316 FILLER_39_273
*1317 FILLER_39_279
*1318 FILLER_39_281
*1319 FILLER_39_293
*1320 FILLER_39_3
*1321 FILLER_39_32
*1322 FILLER_39_44
*1323 FILLER_39_48
*1324 FILLER_39_52
*1325 FILLER_39_57
*1326 FILLER_39_69
*1327 FILLER_39_7
*1328 FILLER_39_73
*1329 FILLER_39_83
*1330 FILLER_3_105
*1331 FILLER_3_111
*1332 FILLER_3_113
*1333 FILLER_3_125
*1334 FILLER_3_137
*1335 FILLER_3_149
*1336 FILLER_3_15
*1337 FILLER_3_161
*1338 FILLER_3_167
*1339 FILLER_3_169
*1340 FILLER_3_181
*1341 FILLER_3_193
*1342 FILLER_3_205
*1343 FILLER_3_217
*1344 FILLER_3_223
*1345 FILLER_3_225
*1346 FILLER_3_237
*1347 FILLER_3_249
*1348 FILLER_3_261
*1349 FILLER_3_27
*1350 FILLER_3_273
*1351 FILLER_3_279
*1352 FILLER_3_281
*1353 FILLER_3_293
*1354 FILLER_3_3
*1355 FILLER_3_39
*1356 FILLER_3_51
*1357 FILLER_3_55
*1358 FILLER_3_57
*1359 FILLER_3_69
*1360 FILLER_3_81
*1361 FILLER_3_93
*1362 FILLER_40_100
*1363 FILLER_40_112
*1364 FILLER_40_12
*1365 FILLER_40_124
*1366 FILLER_40_136
*1367 FILLER_40_141
*1368 FILLER_40_153
*1369 FILLER_40_165
*1370 FILLER_40_177
*1371 FILLER_40_189
*1372 FILLER_40_195
*1373 FILLER_40_197
*1374 FILLER_40_209
*1375 FILLER_40_221
*1376 FILLER_40_233
*1377 FILLER_40_24
*1378 FILLER_40_245
*1379 FILLER_40_251
*1380 FILLER_40_253
*1381 FILLER_40_265
*1382 FILLER_40_277
*1383 FILLER_40_289
*1384 FILLER_40_297
*1385 FILLER_40_3
*1386 FILLER_40_33
*1387 FILLER_40_47
*1388 FILLER_40_58
*1389 FILLER_40_66
*1390 FILLER_40_76
*1391 FILLER_40_88
*1392 FILLER_41_10
*1393 FILLER_41_100
*1394 FILLER_41_113
*1395 FILLER_41_125
*1396 FILLER_41_137
*1397 FILLER_41_149
*1398 FILLER_41_161
*1399 FILLER_41_167
*1400 FILLER_41_169
*1401 FILLER_41_18
*1402 FILLER_41_181
*1403 FILLER_41_193
*1404 FILLER_41_205
*1405 FILLER_41_217
*1406 FILLER_41_223
*1407 FILLER_41_225
*1408 FILLER_41_237
*1409 FILLER_41_24
*1410 FILLER_41_249
*1411 FILLER_41_261
*1412 FILLER_41_273
*1413 FILLER_41_279
*1414 FILLER_41_281
*1415 FILLER_41_293
*1416 FILLER_41_3
*1417 FILLER_41_35
*1418 FILLER_41_42
*1419 FILLER_41_52
*1420 FILLER_41_65
*1421 FILLER_41_72
*1422 FILLER_41_80
*1423 FILLER_41_86
*1424 FILLER_41_94
*1425 FILLER_42_105
*1426 FILLER_42_117
*1427 FILLER_42_129
*1428 FILLER_42_137
*1429 FILLER_42_141
*1430 FILLER_42_153
*1431 FILLER_42_165
*1432 FILLER_42_17
*1433 FILLER_42_177
*1434 FILLER_42_189
*1435 FILLER_42_195
*1436 FILLER_42_197
*1437 FILLER_42_209
*1438 FILLER_42_221
*1439 FILLER_42_233
*1440 FILLER_42_24
*1441 FILLER_42_245
*1442 FILLER_42_251
*1443 FILLER_42_253
*1444 FILLER_42_265
*1445 FILLER_42_277
*1446 FILLER_42_289
*1447 FILLER_42_29
*1448 FILLER_42_297
*1449 FILLER_42_37
*1450 FILLER_42_51
*1451 FILLER_42_59
*1452 FILLER_42_7
*1453 FILLER_42_70
*1454 FILLER_42_80
*1455 FILLER_42_85
*1456 FILLER_43_101
*1457 FILLER_43_109
*1458 FILLER_43_11
*1459 FILLER_43_113
*1460 FILLER_43_125
*1461 FILLER_43_137
*1462 FILLER_43_149
*1463 FILLER_43_161
*1464 FILLER_43_167
*1465 FILLER_43_169
*1466 FILLER_43_181
*1467 FILLER_43_193
*1468 FILLER_43_20
*1469 FILLER_43_205
*1470 FILLER_43_217
*1471 FILLER_43_223
*1472 FILLER_43_225
*1473 FILLER_43_237
*1474 FILLER_43_249
*1475 FILLER_43_261
*1476 FILLER_43_273
*1477 FILLER_43_279
*1478 FILLER_43_281
*1479 FILLER_43_29
*1480 FILLER_43_293
*1481 FILLER_43_3
*1482 FILLER_43_38
*1483 FILLER_43_48
*1484 FILLER_43_62
*1485 FILLER_43_66
*1486 FILLER_43_7
*1487 FILLER_43_76
*1488 FILLER_43_84
*1489 FILLER_43_92
*1490 FILLER_44_104
*1491 FILLER_44_116
*1492 FILLER_44_128
*1493 FILLER_44_141
*1494 FILLER_44_153
*1495 FILLER_44_165
*1496 FILLER_44_177
*1497 FILLER_44_189
*1498 FILLER_44_195
*1499 FILLER_44_197
*1500 FILLER_44_209
*1501 FILLER_44_221
*1502 FILLER_44_23
*1503 FILLER_44_233
*1504 FILLER_44_245
*1505 FILLER_44_251
*1506 FILLER_44_253
*1507 FILLER_44_265
*1508 FILLER_44_27
*1509 FILLER_44_277
*1510 FILLER_44_289
*1511 FILLER_44_297
*1512 FILLER_44_3
*1513 FILLER_44_39
*1514 FILLER_44_43
*1515 FILLER_44_51
*1516 FILLER_44_62
*1517 FILLER_44_75
*1518 FILLER_44_83
*1519 FILLER_44_9
*1520 FILLER_44_92
*1521 FILLER_45_106
*1522 FILLER_45_11
*1523 FILLER_45_113
*1524 FILLER_45_125
*1525 FILLER_45_137
*1526 FILLER_45_149
*1527 FILLER_45_161
*1528 FILLER_45_167
*1529 FILLER_45_169
*1530 FILLER_45_181
*1531 FILLER_45_193
*1532 FILLER_45_205
*1533 FILLER_45_21
*1534 FILLER_45_217
*1535 FILLER_45_223
*1536 FILLER_45_225
*1537 FILLER_45_237
*1538 FILLER_45_249
*1539 FILLER_45_261
*1540 FILLER_45_273
*1541 FILLER_45_279
*1542 FILLER_45_281
*1543 FILLER_45_293
*1544 FILLER_45_3
*1545 FILLER_45_35
*1546 FILLER_45_49
*1547 FILLER_45_55
*1548 FILLER_45_60
*1549 FILLER_45_75
*1550 FILLER_45_82
*1551 FILLER_45_94
*1552 FILLER_46_109
*1553 FILLER_46_121
*1554 FILLER_46_133
*1555 FILLER_46_139
*1556 FILLER_46_141
*1557 FILLER_46_153
*1558 FILLER_46_165
*1559 FILLER_46_177
*1560 FILLER_46_189
*1561 FILLER_46_195
*1562 FILLER_46_197
*1563 FILLER_46_20
*1564 FILLER_46_209
*1565 FILLER_46_221
*1566 FILLER_46_233
*1567 FILLER_46_245
*1568 FILLER_46_251
*1569 FILLER_46_253
*1570 FILLER_46_265
*1571 FILLER_46_277
*1572 FILLER_46_289
*1573 FILLER_46_29
*1574 FILLER_46_297
*1575 FILLER_46_43
*1576 FILLER_46_66
*1577 FILLER_46_73
*1578 FILLER_46_81
*1579 FILLER_46_85
*1580 FILLER_46_97
*1581 FILLER_47_110
*1582 FILLER_47_113
*1583 FILLER_47_125
*1584 FILLER_47_13
*1585 FILLER_47_137
*1586 FILLER_47_149
*1587 FILLER_47_161
*1588 FILLER_47_167
*1589 FILLER_47_169
*1590 FILLER_47_181
*1591 FILLER_47_193
*1592 FILLER_47_205
*1593 FILLER_47_217
*1594 FILLER_47_223
*1595 FILLER_47_225
*1596 FILLER_47_237
*1597 FILLER_47_249
*1598 FILLER_47_261
*1599 FILLER_47_273
*1600 FILLER_47_279
*1601 FILLER_47_281
*1602 FILLER_47_293
*1603 FILLER_47_36
*1604 FILLER_47_44
*1605 FILLER_47_51
*1606 FILLER_47_55
*1607 FILLER_47_6
*1608 FILLER_47_60
*1609 FILLER_47_67
*1610 FILLER_47_74
*1611 FILLER_47_86
*1612 FILLER_47_98
*1613 FILLER_48_109
*1614 FILLER_48_121
*1615 FILLER_48_133
*1616 FILLER_48_139
*1617 FILLER_48_141
*1618 FILLER_48_153
*1619 FILLER_48_165
*1620 FILLER_48_177
*1621 FILLER_48_189
*1622 FILLER_48_195
*1623 FILLER_48_197
*1624 FILLER_48_209
*1625 FILLER_48_221
*1626 FILLER_48_233
*1627 FILLER_48_24
*1628 FILLER_48_245
*1629 FILLER_48_251
*1630 FILLER_48_253
*1631 FILLER_48_265
*1632 FILLER_48_277
*1633 FILLER_48_289
*1634 FILLER_48_29
*1635 FILLER_48_297
*1636 FILLER_48_3
*1637 FILLER_48_50
*1638 FILLER_48_57
*1639 FILLER_48_66
*1640 FILLER_48_73