*SPEF "ieee 1481-1999"
*DESIGN "mbikovitsky_top"
*DATE "11:11:11 Fri 11 11, 1111"
*VENDOR "OpenRCX"
*PROGRAM "Parallel Extraction"
*VERSION "1.0"
*DESIGN_FLOW "NAME_SCOPE LOCAL" "PIN_CAP NONE"
*DIVIDER /
*DELIMITER :
*BUS_DELIMITER []
*T_UNIT 1 NS
*C_UNIT 1 PF
*R_UNIT 1 OHM
*L_UNIT 1 HENRY

*NAME_MAP
*1 io_in[0]
*2 io_in[1]
*3 io_in[2]
*4 io_in[3]
*5 io_in[4]
*6 io_in[5]
*7 io_in[6]
*8 io_in[7]
*9 io_out[0]
*10 io_out[1]
*11 io_out[2]
*12 io_out[3]
*13 io_out[4]
*14 io_out[5]
*15 io_out[6]
*16 io_out[7]
*19 _0000_
*20 _0001_
*21 _0002_
*22 _0003_
*23 _0004_
*24 _0005_
*25 _0006_
*26 _0007_
*27 _0008_
*28 _0009_
*29 _0010_
*30 _0011_
*31 _0012_
*32 _0013_
*33 _0014_
*34 _0015_
*35 _0016_
*36 _0017_
*37 _0018_
*38 _0019_
*39 _0020_
*40 _0021_
*41 _0022_
*42 _0023_
*43 _0024_
*44 _0025_
*45 _0026_
*46 _0027_
*47 _0028_
*48 _0029_
*49 _0030_
*50 _0031_
*51 _0032_
*52 _0033_
*53 _0034_
*54 _0035_
*55 _0036_
*56 _0037_
*57 _0038_
*58 _0039_
*59 _0040_
*60 _0041_
*61 _0042_
*62 _0043_
*63 _0044_
*64 _0045_
*65 _0046_
*66 _0047_
*67 _0048_
*68 _0049_
*69 _0050_
*70 _0051_
*71 _0052_
*72 _0053_
*73 _0054_
*74 _0055_
*75 _0056_
*76 _0057_
*77 _0058_
*78 _0059_
*79 _0060_
*80 _0061_
*81 _0062_
*82 _0063_
*83 _0064_
*84 _0065_
*85 _0066_
*86 _0067_
*87 _0068_
*88 _0069_
*89 _0070_
*90 _0071_
*91 _0072_
*92 _0073_
*93 _0074_
*94 _0075_
*95 _0076_
*96 _0077_
*97 _0078_
*98 _0079_
*99 _0080_
*100 _0081_
*101 _0082_
*102 _0083_
*103 _0084_
*104 _0085_
*105 _0086_
*106 _0087_
*107 _0088_
*108 _0089_
*109 _0090_
*110 _0091_
*111 _0092_
*112 _0093_
*113 _0094_
*114 _0095_
*115 _0096_
*116 _0097_
*117 _0098_
*118 _0099_
*119 _0100_
*120 _0101_
*121 _0102_
*122 _0103_
*123 _0104_
*124 _0105_
*125 _0106_
*126 _0107_
*127 _0108_
*128 _0109_
*129 _0110_
*130 _0111_
*131 _0112_
*132 _0113_
*133 _0114_
*134 _0115_
*135 _0116_
*136 _0117_
*137 _0118_
*138 _0119_
*139 _0120_
*140 _0121_
*141 _0122_
*142 _0123_
*143 _0124_
*144 _0125_
*145 _0126_
*146 _0127_
*147 _0128_
*148 _0129_
*149 _0130_
*150 _0131_
*151 _0132_
*152 _0133_
*153 _0134_
*154 _0135_
*155 _0136_
*156 _0137_
*157 _0138_
*158 _0139_
*159 _0140_
*160 _0141_
*161 _0142_
*162 _0143_
*163 _0144_
*164 _0145_
*165 _0146_
*166 _0147_
*167 _0148_
*168 _0149_
*169 _0150_
*170 _0151_
*171 _0152_
*172 _0153_
*173 _0154_
*174 _0155_
*175 _0156_
*176 _0157_
*177 _0158_
*178 _0159_
*179 _0160_
*180 _0161_
*181 _0162_
*182 _0163_
*183 _0164_
*184 _0165_
*185 _0166_
*186 _0167_
*187 _0168_
*188 _0169_
*189 _0170_
*190 _0171_
*191 _0172_
*192 _0173_
*193 _0174_
*194 _0175_
*195 _0176_
*196 _0177_
*197 _0178_
*198 _0179_
*199 _0180_
*200 _0181_
*201 _0182_
*202 _0183_
*203 _0184_
*204 _0185_
*205 _0186_
*206 _0187_
*207 _0188_
*208 _0189_
*209 _0190_
*210 _0191_
*211 _0192_
*212 _0193_
*213 _0194_
*214 _0195_
*215 _0196_
*216 _0197_
*217 _0198_
*218 _0199_
*219 _0200_
*220 _0201_
*221 _0202_
*222 _0203_
*223 _0204_
*224 _0205_
*225 _0206_
*226 _0207_
*227 _0208_
*228 _0209_
*229 _0210_
*230 _0211_
*231 _0212_
*232 _0213_
*233 _0214_
*234 _0215_
*235 _0216_
*236 _0217_
*237 _0218_
*238 _0219_
*239 _0220_
*240 _0221_
*241 _0222_
*242 _0223_
*243 _0224_
*244 _0225_
*245 _0226_
*246 _0227_
*247 _0228_
*248 _0229_
*249 _0230_
*250 _0231_
*251 _0232_
*252 _0233_
*253 _0234_
*254 _0235_
*255 _0236_
*256 _0237_
*257 _0238_
*258 _0239_
*259 _0240_
*260 _0241_
*261 _0242_
*262 _0243_
*263 _0244_
*264 _0245_
*265 _0246_
*266 _0247_
*267 _0248_
*268 _0249_
*269 _0250_
*270 _0251_
*271 _0252_
*272 _0253_
*273 _0254_
*274 _0255_
*275 _0256_
*276 _0257_
*277 _0258_
*278 _0259_
*279 _0260_
*280 _0261_
*281 _0262_
*282 _0263_
*283 _0264_
*284 _0265_
*285 _0266_
*286 _0267_
*287 _0268_
*288 _0269_
*289 _0270_
*290 _0271_
*291 _0272_
*292 _0273_
*293 _0274_
*294 _0275_
*295 _0276_
*296 _0277_
*297 _0278_
*298 _0279_
*299 _0280_
*300 _0281_
*301 _0282_
*302 _0283_
*303 _0284_
*304 _0285_
*305 _0286_
*306 _0287_
*307 _0288_
*308 _0289_
*309 _0290_
*310 _0291_
*311 _0292_
*312 _0293_
*313 _0294_
*314 _0295_
*315 _0296_
*316 _0297_
*317 _0298_
*318 _0299_
*319 _0300_
*320 _0301_
*321 _0302_
*322 _0303_
*323 _0304_
*324 _0305_
*325 _0306_
*326 _0307_
*327 _0308_
*328 _0309_
*329 _0310_
*330 _0311_
*331 _0312_
*332 _0313_
*333 _0314_
*334 _0315_
*335 _0316_
*336 _0317_
*337 _0318_
*338 _0319_
*339 _0320_
*340 _0321_
*341 _0322_
*342 _0323_
*343 _0324_
*344 _0325_
*345 _0326_
*346 _0327_
*347 _0328_
*348 _0329_
*349 _0330_
*350 _0331_
*351 _0332_
*352 _0333_
*353 _0334_
*354 _0335_
*355 _0336_
*356 _0337_
*357 _0338_
*358 _0339_
*359 _0340_
*360 _0341_
*361 _0342_
*362 _0343_
*363 _0344_
*364 _0345_
*365 _0346_
*366 _0347_
*367 _0348_
*368 _0349_
*369 _0350_
*370 _0351_
*371 _0352_
*372 _0353_
*373 _0354_
*374 _0355_
*375 _0356_
*376 _0357_
*377 _0358_
*378 _0359_
*379 _0360_
*380 _0361_
*381 _0362_
*382 _0363_
*383 _0364_
*384 _0365_
*385 _0366_
*386 _0367_
*387 _0368_
*388 _0369_
*389 _0370_
*390 _0371_
*391 _0372_
*392 _0373_
*393 _0374_
*394 _0375_
*395 _0376_
*396 _0377_
*397 _0378_
*398 _0379_
*399 _0380_
*400 _0381_
*401 _0382_
*402 _0383_
*403 _0384_
*404 _0385_
*405 _0386_
*406 _0387_
*407 _0388_
*408 _0389_
*409 _0390_
*410 _0391_
*411 _0392_
*412 _0393_
*413 _0394_
*414 _0395_
*415 _0396_
*416 _0397_
*417 _0398_
*418 _0399_
*419 _0400_
*420 _0401_
*421 _0402_
*422 _0403_
*423 _0404_
*424 _0405_
*425 _0406_
*426 _0407_
*427 _0408_
*428 _0409_
*429 _0410_
*430 _0411_
*431 _0412_
*432 _0413_
*433 _0414_
*434 _0415_
*435 _0416_
*436 _0417_
*437 _0418_
*438 _0419_
*439 _0420_
*440 _0421_
*441 _0422_
*442 _0423_
*443 _0424_
*444 _0425_
*445 _0426_
*446 _0427_
*447 _0428_
*448 _0429_
*449 _0430_
*450 _0431_
*451 _0432_
*452 _0433_
*453 _0434_
*454 _0435_
*455 _0436_
*456 _0437_
*457 _0438_
*458 _0439_
*459 _0440_
*460 _0441_
*461 _0442_
*462 _0443_
*463 _0444_
*464 _0445_
*465 _0446_
*466 _0447_
*467 _0448_
*468 _0449_
*469 _0450_
*470 _0451_
*471 _0452_
*472 _0453_
*473 _0454_
*474 _0455_
*475 _0456_
*476 _0457_
*477 _0458_
*478 _0459_
*479 _0460_
*480 _0461_
*481 _0462_
*482 _0463_
*483 _0464_
*484 _0465_
*485 _0466_
*486 _0467_
*487 _0468_
*488 _0469_
*489 _0470_
*490 _0471_
*491 _0472_
*492 _0473_
*493 _0474_
*494 _0475_
*495 _0476_
*496 _0477_
*497 _0478_
*498 _0479_
*499 _0480_
*500 _0481_
*501 _0482_
*502 _0483_
*503 _0484_
*504 _0485_
*505 _0486_
*506 _0487_
*507 _0488_
*508 _0489_
*509 _0490_
*510 _0491_
*511 _0492_
*512 _0493_
*513 _0494_
*514 _0495_
*515 _0496_
*516 _0497_
*517 _0498_
*518 _0499_
*519 _0500_
*520 _0501_
*521 _0502_
*522 _0503_
*523 _0504_
*524 _0505_
*525 _0506_
*526 _0507_
*527 _0508_
*528 _0509_
*529 _0510_
*530 _0511_
*531 _0512_
*532 _0513_
*533 _0514_
*534 _0515_
*535 _0516_
*536 _0517_
*537 _0518_
*538 _0519_
*539 _0520_
*540 _0521_
*541 _0522_
*542 _0523_
*543 _0524_
*544 _0525_
*545 _0526_
*546 _0527_
*547 _0528_
*548 _0529_
*549 _0530_
*550 _0531_
*551 _0532_
*552 _0533_
*553 _0534_
*554 _0535_
*555 _0536_
*556 _0537_
*557 _0538_
*558 _0539_
*559 _0540_
*560 _0541_
*561 _0542_
*562 _0543_
*563 _0544_
*564 _0545_
*565 _0546_
*566 _0547_
*567 _0548_
*568 _0549_
*569 _0550_
*570 _0551_
*571 _0552_
*572 _0553_
*573 _0554_
*574 _0555_
*575 _0556_
*576 _0557_
*577 _0558_
*578 _0559_
*579 _0560_
*580 _0561_
*581 _0562_
*582 _0563_
*583 _0564_
*584 _0565_
*585 _0566_
*586 _0567_
*587 _0568_
*588 _0569_
*589 _0570_
*590 _0571_
*591 _0572_
*592 _0573_
*593 _0574_
*594 _0575_
*595 _0576_
*596 _0577_
*597 _0578_
*598 _0579_
*599 _0580_
*600 _0581_
*601 _0582_
*602 _0583_
*603 _0584_
*604 _0585_
*605 _0586_
*606 _0587_
*607 _0588_
*608 _0589_
*609 _0590_
*610 _0591_
*611 _0592_
*612 _0593_
*613 _0594_
*614 _0595_
*615 _0596_
*616 _0597_
*617 _0598_
*618 _0599_
*619 _0600_
*620 _0601_
*621 _0602_
*622 _0603_
*623 _0604_
*624 _0605_
*625 _0606_
*626 _0607_
*627 _0608_
*628 _0609_
*629 _0610_
*630 _0611_
*631 _0612_
*632 _0613_
*633 _0614_
*634 _0615_
*635 _0616_
*636 _0617_
*637 _0618_
*638 _0619_
*639 _0620_
*640 _0621_
*641 _0622_
*642 _0623_
*643 _0624_
*644 _0625_
*645 _0626_
*646 _0627_
*647 _0628_
*648 _0629_
*649 _0630_
*650 _0631_
*651 _0632_
*652 _0633_
*653 _0634_
*654 _0635_
*655 _0636_
*656 _0637_
*657 _0638_
*658 _0639_
*659 _0640_
*660 _0641_
*661 _0642_
*662 _0643_
*663 _0644_
*664 _0645_
*665 _0646_
*666 _0647_
*667 _0648_
*668 _0649_
*669 _0650_
*670 _0651_
*671 _0652_
*672 _0653_
*673 _0654_
*674 _0655_
*675 _0656_
*676 _0657_
*677 _0658_
*678 _0659_
*679 _0660_
*680 _0661_
*681 _0662_
*682 _0663_
*683 _0664_
*684 _0665_
*685 _0666_
*686 _0667_
*687 _0668_
*688 _0669_
*689 _0670_
*690 _0671_
*691 _0672_
*692 _0673_
*693 _0674_
*694 _0675_
*695 _0676_
*696 _0677_
*697 _0678_
*698 _0679_
*699 _0680_
*700 _0681_
*701 _0682_
*702 _0683_
*703 _0684_
*704 _0685_
*705 _0686_
*706 _0687_
*707 _0688_
*708 _0689_
*709 _0690_
*710 _0691_
*711 _0692_
*712 _0693_
*713 _0694_
*714 _0695_
*715 _0696_
*716 _0697_
*717 _0698_
*718 _0699_
*719 _0700_
*720 _0701_
*721 _0702_
*722 _0703_
*723 _0704_
*724 _0705_
*725 _0706_
*726 _0707_
*727 _0708_
*728 _0709_
*729 _0710_
*730 _0711_
*731 _0712_
*732 _0713_
*733 _0714_
*734 _0715_
*735 _0716_
*736 _0717_
*737 _0718_
*738 _0719_
*739 _0720_
*740 _0721_
*741 _0722_
*742 _0723_
*743 _0724_
*744 _0725_
*745 _0726_
*746 _0727_
*747 _0728_
*748 _0729_
*749 _0730_
*750 _0731_
*751 _0732_
*752 _0733_
*753 _0734_
*754 _0735_
*755 _0736_
*756 _0737_
*757 _0738_
*758 _0739_
*759 _0740_
*760 _0741_
*761 _0742_
*762 _0743_
*763 _0744_
*764 _0745_
*765 _0746_
*766 _0747_
*767 _0748_
*768 _0749_
*769 _0750_
*770 _0751_
*771 _0752_
*772 _0753_
*773 _0754_
*774 _0755_
*775 _0756_
*776 _0757_
*777 _0758_
*778 _0759_
*779 _0760_
*780 _0761_
*781 _0762_
*782 _0763_
*783 _0764_
*784 _0765_
*785 _0766_
*786 _0767_
*787 _0768_
*788 _0769_
*789 _0770_
*790 _0771_
*791 _0772_
*792 _0773_
*793 _0774_
*794 _0775_
*795 _0776_
*796 _0777_
*797 _0778_
*798 _0779_
*799 _0780_
*800 _0781_
*801 _0782_
*802 _0783_
*803 _0784_
*804 _0785_
*805 _0786_
*806 _0787_
*807 _0788_
*808 _0789_
*809 _0790_
*810 _0791_
*811 _0792_
*812 _0793_
*813 _0794_
*814 _0795_
*815 _0796_
*816 _0797_
*817 _0798_
*818 _0799_
*819 _0800_
*820 _0801_
*821 _0802_
*822 _0803_
*823 _0804_
*824 _0805_
*825 _0806_
*826 _0807_
*827 _0808_
*828 _0809_
*829 _0810_
*830 _0811_
*831 _0812_
*832 _0813_
*833 _0814_
*834 _0815_
*835 _0816_
*836 _0817_
*837 _0818_
*838 _0819_
*839 _0820_
*840 _0821_
*841 _0822_
*842 _0823_
*843 _0824_
*844 _0825_
*845 _0826_
*846 _0827_
*847 _0828_
*848 _0829_
*849 _0830_
*850 _0831_
*851 _0832_
*852 _0833_
*853 _0834_
*854 _0835_
*855 _0836_
*856 _0837_
*857 _0838_
*858 _0839_
*859 _0840_
*860 _0841_
*861 _0842_
*862 _0843_
*863 _0844_
*864 _0845_
*865 _0846_
*866 _0847_
*867 _0848_
*868 _0849_
*869 _0850_
*870 _0851_
*871 _0852_
*872 _0853_
*873 _0854_
*874 _0855_
*875 _0856_
*876 _0857_
*877 _0858_
*878 _0859_
*879 _0860_
*880 _0861_
*881 _0862_
*882 _0863_
*883 _0864_
*884 _0865_
*885 _0866_
*886 _0867_
*887 _0868_
*888 _0869_
*889 _0870_
*890 _0871_
*891 _0872_
*892 _0873_
*893 _0874_
*894 _0875_
*895 _0876_
*896 _0877_
*897 _0878_
*898 _0879_
*899 _0880_
*900 _0881_
*901 _0882_
*902 _0883_
*903 _0884_
*904 _0885_
*905 _0886_
*906 _0887_
*907 _0888_
*908 _0889_
*909 _0890_
*910 _0891_
*911 _0892_
*912 _0893_
*913 _0894_
*914 _0895_
*915 _0896_
*916 _0897_
*917 _0898_
*918 _0899_
*919 _0900_
*920 _0901_
*921 _0902_
*922 _0903_
*923 _0904_
*924 _0905_
*925 _0906_
*926 _0907_
*927 _0908_
*928 _0909_
*929 _0910_
*930 _0911_
*931 _0912_
*932 _0913_
*933 _0914_
*934 _0915_
*935 _0916_
*936 _0917_
*937 _0918_
*938 _0919_
*939 _0920_
*940 _0921_
*941 _0922_
*942 _0923_
*943 _0924_
*944 _0925_
*945 _0926_
*946 _0927_
*947 _0928_
*948 _0929_
*949 _0930_
*950 _0931_
*951 clknet_0_io_in[0]
*952 clknet_4_0_0_io_in[0]
*953 clknet_4_10_0_io_in[0]
*954 clknet_4_11_0_io_in[0]
*955 clknet_4_12_0_io_in[0]
*956 clknet_4_13_0_io_in[0]
*957 clknet_4_14_0_io_in[0]
*958 clknet_4_15_0_io_in[0]
*959 clknet_4_1_0_io_in[0]
*960 clknet_4_2_0_io_in[0]
*961 clknet_4_3_0_io_in[0]
*962 clknet_4_4_0_io_in[0]
*963 clknet_4_5_0_io_in[0]
*964 clknet_4_6_0_io_in[0]
*965 clknet_4_7_0_io_in[0]
*966 clknet_4_8_0_io_in[0]
*967 clknet_4_9_0_io_in[0]
*968 cpu\.a_reg\[0\]
*969 cpu\.a_reg\[10\]
*970 cpu\.a_reg\[11\]
*971 cpu\.a_reg\[12\]
*972 cpu\.a_reg\[13\]
*973 cpu\.a_reg\[14\]
*974 cpu\.a_reg\[15\]
*975 cpu\.a_reg\[1\]
*976 cpu\.a_reg\[2\]
*977 cpu\.a_reg\[3\]
*978 cpu\.a_reg\[4\]
*979 cpu\.a_reg\[5\]
*980 cpu\.a_reg\[6\]
*981 cpu\.a_reg\[7\]
*982 cpu\.a_reg\[8\]
*983 cpu\.a_reg\[9\]
*984 cpu\.alu\.alu\.x\[0\]
*985 cpu\.alu\.alu\.x\[10\]
*986 cpu\.alu\.alu\.x\[11\]
*987 cpu\.alu\.alu\.x\[12\]
*988 cpu\.alu\.alu\.x\[13\]
*989 cpu\.alu\.alu\.x\[14\]
*990 cpu\.alu\.alu\.x\[15\]
*991 cpu\.alu\.alu\.x\[1\]
*992 cpu\.alu\.alu\.x\[2\]
*993 cpu\.alu\.alu\.x\[3\]
*994 cpu\.alu\.alu\.x\[4\]
*995 cpu\.alu\.alu\.x\[5\]
*996 cpu\.alu\.alu\.x\[6\]
*997 cpu\.alu\.alu\.x\[7\]
*998 cpu\.alu\.alu\.x\[8\]
*999 cpu\.alu\.alu\.x\[9\]
*1000 cpu\.memory_i\[0\]
*1001 cpu\.memory_i\[10\]
*1002 cpu\.memory_i\[11\]
*1003 cpu\.memory_i\[12\]
*1004 cpu\.memory_i\[13\]
*1005 cpu\.memory_i\[14\]
*1006 cpu\.memory_i\[15\]
*1007 cpu\.memory_i\[1\]
*1008 cpu\.memory_i\[2\]
*1009 cpu\.memory_i\[3\]
*1010 cpu\.memory_i\[4\]
*1011 cpu\.memory_i\[5\]
*1012 cpu\.memory_i\[6\]
*1013 cpu\.memory_i\[7\]
*1014 cpu\.memory_i\[8\]
*1015 cpu\.memory_i\[9\]
*1016 cpu\.next_instruction_addr_o\[0\]
*1017 cpu\.next_instruction_addr_o\[1\]
*1018 lfsr\.lfsr\[0\]
*1019 lfsr\.lfsr\[1\]
*1020 lfsr\.lfsr\[2\]
*1021 lfsr\.lfsr\[3\]
*1022 lfsr\.lfsr\[4\]
*1023 lfsr\.taps\[0\]
*1024 lfsr\.taps\[1\]
*1025 lfsr\.taps\[2\]
*1026 lfsr\.taps\[3\]
*1027 lfsr\.taps\[4\]
*1028 lfsr\.tick_count\[0\]
*1029 lfsr\.tick_count\[1\]
*1030 lfsr\.tick_count\[2\]
*1031 lfsr\.tick_count\[3\]
*1032 lfsr\.tick_count\[4\]
*1033 lfsr\.tick_count\[5\]
*1034 lfsr\.tick_count\[6\]
*1035 lfsr\.tick_count\[7\]
*1036 lfsr\.tick_count\[8\]
*1037 lfsr\.tick_count\[9\]
*1038 net1
*1039 net2
*1040 net3
*1041 net4
*1042 net5
*1043 net6
*1044 net7
*1045 net8
*1046 prom\[0\]\[0\]
*1047 prom\[0\]\[10\]
*1048 prom\[0\]\[11\]
*1049 prom\[0\]\[12\]
*1050 prom\[0\]\[13\]
*1051 prom\[0\]\[14\]
*1052 prom\[0\]\[15\]
*1053 prom\[0\]\[1\]
*1054 prom\[0\]\[2\]
*1055 prom\[0\]\[3\]
*1056 prom\[0\]\[4\]
*1057 prom\[0\]\[5\]
*1058 prom\[0\]\[6\]
*1059 prom\[0\]\[7\]
*1060 prom\[0\]\[8\]
*1061 prom\[0\]\[9\]
*1062 prom\[1\]\[0\]
*1063 prom\[1\]\[10\]
*1064 prom\[1\]\[11\]
*1065 prom\[1\]\[12\]
*1066 prom\[1\]\[13\]
*1067 prom\[1\]\[14\]
*1068 prom\[1\]\[15\]
*1069 prom\[1\]\[1\]
*1070 prom\[1\]\[2\]
*1071 prom\[1\]\[3\]
*1072 prom\[1\]\[4\]
*1073 prom\[1\]\[5\]
*1074 prom\[1\]\[6\]
*1075 prom\[1\]\[7\]
*1076 prom\[1\]\[8\]
*1077 prom\[1\]\[9\]
*1078 prom\[2\]\[0\]
*1079 prom\[2\]\[10\]
*1080 prom\[2\]\[11\]
*1081 prom\[2\]\[12\]
*1082 prom\[2\]\[13\]
*1083 prom\[2\]\[14\]
*1084 prom\[2\]\[15\]
*1085 prom\[2\]\[1\]
*1086 prom\[2\]\[2\]
*1087 prom\[2\]\[3\]
*1088 prom\[2\]\[4\]
*1089 prom\[2\]\[5\]
*1090 prom\[2\]\[6\]
*1091 prom\[2\]\[7\]
*1092 prom\[2\]\[8\]
*1093 prom\[2\]\[9\]
*1094 prom\[3\]\[0\]
*1095 prom\[3\]\[10\]
*1096 prom\[3\]\[11\]
*1097 prom\[3\]\[12\]
*1098 prom\[3\]\[13\]
*1099 prom\[3\]\[14\]
*1100 prom\[3\]\[15\]
*1101 prom\[3\]\[1\]
*1102 prom\[3\]\[2\]
*1103 prom\[3\]\[3\]
*1104 prom\[3\]\[4\]
*1105 prom\[3\]\[5\]
*1106 prom\[3\]\[6\]
*1107 prom\[3\]\[7\]
*1108 prom\[3\]\[8\]
*1109 prom\[3\]\[9\]
*1110 uart\.rx
*1111 uart\.rx_bit_count\[0\]
*1112 uart\.rx_bit_count\[1\]
*1113 uart\.rx_bit_count\[2\]
*1114 uart\.rx_data\[0\]
*1115 uart\.rx_data\[1\]
*1116 uart\.rx_data\[2\]
*1117 uart\.rx_data\[3\]
*1118 uart\.rx_data\[4\]
*1119 uart\.rx_data\[5\]
*1120 uart\.rx_data\[6\]
*1121 uart\.rx_data\[7\]
*1122 uart\.rx_intermediate
*1123 uart\.rx_ready_o
*1124 uart\.rx_state\[0\]
*1125 uart\.rx_state\[2\]
*1126 uart\.rx_state\[3\]
*1127 uart\.rx_state\[5\]
*1128 uart\.rx_tick_count\[0\]
*1129 uart\.rx_tick_count\[1\]
*1130 uart\.rx_tick_count\[2\]
*1131 uart_state
*1132 uart_write_address\[0\]
*1133 uart_write_address\[1\]
*1134 FILLER_0_101
*1135 FILLER_0_108
*1136 FILLER_0_122
*1137 FILLER_0_126
*1138 FILLER_0_136
*1139 FILLER_0_141
*1140 FILLER_0_145
*1141 FILLER_0_155
*1142 FILLER_0_167
*1143 FILLER_0_169
*1144 FILLER_0_184
*1145 FILLER_0_19
*1146 FILLER_0_213
*1147 FILLER_0_220
*1148 FILLER_0_228
*1149 FILLER_0_240
*1150 FILLER_0_245
*1151 FILLER_0_251
*1152 FILLER_0_253
*1153 FILLER_0_265
*1154 FILLER_0_27
*1155 FILLER_0_277
*1156 FILLER_0_281
*1157 FILLER_0_293
*1158 FILLER_0_34
*1159 FILLER_0_41
*1160 FILLER_0_48
*1161 FILLER_0_57
*1162 FILLER_0_64
*1163 FILLER_0_71
*1164 FILLER_0_79
*1165 FILLER_0_83
*1166 FILLER_10_103
*1167 FILLER_10_117
*1168 FILLER_10_130
*1169 FILLER_10_138
*1170 FILLER_10_141
*1171 FILLER_10_152
*1172 FILLER_10_167
*1173 FILLER_10_179
*1174 FILLER_10_19
*1175 FILLER_10_191
*1176 FILLER_10_195
*1177 FILLER_10_208
*1178 FILLER_10_228
*1179 FILLER_10_241
*1180 FILLER_10_248
*1181 FILLER_10_269
*1182 FILLER_10_27
*1183 FILLER_10_281
*1184 FILLER_10_293
*1185 FILLER_10_35
*1186 FILLER_10_44
*1187 FILLER_10_56
*1188 FILLER_10_76
*1189 FILLER_10_88
*1190 FILLER_11_107
*1191 FILLER_11_111
*1192 FILLER_11_122
*1193 FILLER_11_135
*1194 FILLER_11_142
*1195 FILLER_11_164
*1196 FILLER_11_169
*1197 FILLER_11_175
*1198 FILLER_11_181
*1199 FILLER_11_200
*1200 FILLER_11_220
*1201 FILLER_11_225
*1202 FILLER_11_243
*1203 FILLER_11_26
*1204 FILLER_11_260
*1205 FILLER_11_272
*1206 FILLER_11_281
*1207 FILLER_11_293
*1208 FILLER_11_32
*1209 FILLER_11_49
*1210 FILLER_11_55
*1211 FILLER_11_57
*1212 FILLER_11_6
*1213 FILLER_11_63
*1214 FILLER_11_77
*1215 FILLER_11_81
*1216 FILLER_11_98
*1217 FILLER_12_114
*1218 FILLER_12_13
*1219 FILLER_12_136
*1220 FILLER_12_141
*1221 FILLER_12_154
*1222 FILLER_12_166
*1223 FILLER_12_185
*1224 FILLER_12_193
*1225 FILLER_12_20
*1226 FILLER_12_200
*1227 FILLER_12_209
*1228 FILLER_12_229
*1229 FILLER_12_242
*1230 FILLER_12_250
*1231 FILLER_12_262
*1232 FILLER_12_274
*1233 FILLER_12_286
*1234 FILLER_12_29
*1235 FILLER_12_298
*1236 FILLER_12_36
*1237 FILLER_12_43
*1238 FILLER_12_51
*1239 FILLER_12_61
*1240 FILLER_12_76
*1241 FILLER_12_94
*1242 FILLER_13_105
*1243 FILLER_13_111
*1244 FILLER_13_116
*1245 FILLER_13_136
*1246 FILLER_13_140
*1247 FILLER_13_157
*1248 FILLER_13_165
*1249 FILLER_13_169
*1250 FILLER_13_184
*1251 FILLER_13_19
*1252 FILLER_13_192
*1253 FILLER_13_211
*1254 FILLER_13_218
*1255 FILLER_13_228
*1256 FILLER_13_232
*1257 FILLER_13_254
*1258 FILLER_13_26
*1259 FILLER_13_274
*1260 FILLER_13_281
*1261 FILLER_13_293
*1262 FILLER_13_32
*1263 FILLER_13_36
*1264 FILLER_13_48
*1265 FILLER_13_52
*1266 FILLER_13_73
*1267 FILLER_13_81
*1268 FILLER_13_91
*1269 FILLER_13_99
*1270 FILLER_14_102
*1271 FILLER_14_110
*1272 FILLER_14_116
*1273 FILLER_14_124
*1274 FILLER_14_132
*1275 FILLER_14_144
*1276 FILLER_14_151
*1277 FILLER_14_175
*1278 FILLER_14_179
*1279 FILLER_14_189
*1280 FILLER_14_195
*1281 FILLER_14_197
*1282 FILLER_14_207
*1283 FILLER_14_211
*1284 FILLER_14_233
*1285 FILLER_14_24
*1286 FILLER_14_240
*1287 FILLER_14_256
*1288 FILLER_14_268
*1289 FILLER_14_280
*1290 FILLER_14_292
*1291 FILLER_14_298
*1292 FILLER_14_3
*1293 FILLER_14_45
*1294 FILLER_14_58
*1295 FILLER_14_7
*1296 FILLER_14_80
*1297 FILLER_14_85
*1298 FILLER_15_108
*1299 FILLER_15_122
*1300 FILLER_15_130
*1301 FILLER_15_14
*1302 FILLER_15_148
*1303 FILLER_15_154
*1304 FILLER_15_164
*1305 FILLER_15_172
*1306 FILLER_15_192
*1307 FILLER_15_207
*1308 FILLER_15_213
*1309 FILLER_15_218
*1310 FILLER_15_225
*1311 FILLER_15_23
*1312 FILLER_15_247
*1313 FILLER_15_254
*1314 FILLER_15_260
*1315 FILLER_15_265
*1316 FILLER_15_277
*1317 FILLER_15_281
*1318 FILLER_15_293
*1319 FILLER_15_31
*1320 FILLER_15_36
*1321 FILLER_15_40
*1322 FILLER_15_50
*1323 FILLER_15_57
*1324 FILLER_15_6
*1325 FILLER_15_63
*1326 FILLER_15_67
*1327 FILLER_15_80
*1328 FILLER_15_86
*1329 FILLER_16_100
*1330 FILLER_16_105
*1331 FILLER_16_125
*1332 FILLER_16_13
*1333 FILLER_16_133
*1334 FILLER_16_139
*1335 FILLER_16_141
*1336 FILLER_16_165
*1337 FILLER_16_177
*1338 FILLER_16_182
*1339 FILLER_16_194
*1340 FILLER_16_197
*1341 FILLER_16_207
*1342 FILLER_16_232
*1343 FILLER_16_24
*1344 FILLER_16_245
*1345 FILLER_16_251
*1346 FILLER_16_269
*1347 FILLER_16_281
*1348 FILLER_16_293
*1349 FILLER_16_45
*1350 FILLER_16_51
*1351 FILLER_16_70
*1352 FILLER_16_74
*1353 FILLER_16_78
*1354 FILLER_16_94
*1355 FILLER_17_102
*1356 FILLER_17_110
*1357 FILLER_17_113
*1358 FILLER_17_117
*1359 FILLER_17_121
*1360 FILLER_17_133
*1361 FILLER_17_141
*1362 FILLER_17_151
*1363 FILLER_17_163
*1364 FILLER_17_167
*1365 FILLER_17_169
*1366 FILLER_17_188
*1367 FILLER_17_19
*1368 FILLER_17_192
*1369 FILLER_17_209
*1370 FILLER_17_217
*1371 FILLER_17_223
*1372 FILLER_17_229
*1373 FILLER_17_237
*1374 FILLER_17_244
*1375 FILLER_17_248
*1376 FILLER_17_258
*1377 FILLER_17_276
*1378 FILLER_17_281
*1379 FILLER_17_293
*1380 FILLER_17_33
*1381 FILLER_17_44
*1382 FILLER_17_48
*1383 FILLER_17_52
*1384 FILLER_17_57
*1385 FILLER_17_67
*1386 FILLER_17_87
*1387 FILLER_18_105
*1388 FILLER_18_112
*1389 FILLER_18_13
*1390 FILLER_18_132
*1391 FILLER_18_141
*1392 FILLER_18_149
*1393 FILLER_18_156
*1394 FILLER_18_177
*1395 FILLER_18_185
*1396 FILLER_18_193
*1397 FILLER_18_197
*1398 FILLER_18_205
*1399 FILLER_18_212
*1400 FILLER_18_22
*1401 FILLER_18_224
*1402 FILLER_18_231
*1403 FILLER_18_237
*1404 FILLER_18_244
*1405 FILLER_18_253
*1406 FILLER_18_257
*1407 FILLER_18_265
*1408 FILLER_18_276
*1409 FILLER_18_287
*1410 FILLER_18_29
*1411 FILLER_18_40
*1412 FILLER_18_49
*1413 FILLER_18_6
*1414 FILLER_18_69
*1415 FILLER_18_80
*1416 FILLER_18_85
*1417 FILLER_19_108
*1418 FILLER_19_131
*1419 FILLER_19_144
*1420 FILLER_19_15
*1421 FILLER_19_164
*1422 FILLER_19_178
*1423 FILLER_19_198
*1424 FILLER_19_206
*1425 FILLER_19_214
*1426 FILLER_19_222
*1427 FILLER_19_23
*1428 FILLER_19_231
*1429 FILLER_19_239
*1430 FILLER_19_253
*1431 FILLER_19_267
*1432 FILLER_19_274
*1433 FILLER_19_290
*1434 FILLER_19_298
*1435 FILLER_19_30
*1436 FILLER_19_38
*1437 FILLER_19_46
*1438 FILLER_19_54
*1439 FILLER_19_57
*1440 FILLER_19_6
*1441 FILLER_19_72
*1442 FILLER_19_85
*1443 FILLER_19_89
*1444 FILLER_19_93
*1445 FILLER_1_108
*1446 FILLER_1_116
*1447 FILLER_1_12
*1448 FILLER_1_136
*1449 FILLER_1_140
*1450 FILLER_1_157
*1451 FILLER_1_165
*1452 FILLER_1_185
*1453 FILLER_1_205
*1454 FILLER_1_219
*1455 FILLER_1_223
*1456 FILLER_1_228
*1457 FILLER_1_234
*1458 FILLER_1_251
*1459 FILLER_1_258
*1460 FILLER_1_270
*1461 FILLER_1_278
*1462 FILLER_1_281
*1463 FILLER_1_293
*1464 FILLER_1_3
*1465 FILLER_1_32
*1466 FILLER_1_52
*1467 FILLER_1_57
*1468 FILLER_1_64
*1469 FILLER_1_88
*1470 FILLER_20_104
*1471 FILLER_20_116
*1472 FILLER_20_127
*1473 FILLER_20_135
*1474 FILLER_20_139
*1475 FILLER_20_15
*1476 FILLER_20_157
*1477 FILLER_20_172
*1478 FILLER_20_180
*1479 FILLER_20_187
*1480 FILLER_20_195
*1481 FILLER_20_197
*1482 FILLER_20_203
*1483 FILLER_20_207
*1484 FILLER_20_214
*1485 FILLER_20_225
*1486 FILLER_20_239
*1487 FILLER_20_24
*1488 FILLER_20_248
*1489 FILLER_20_256
*1490 FILLER_20_269
*1491 FILLER_20_283
*1492 FILLER_20_295
*1493 FILLER_20_35
*1494 FILLER_20_39
*1495 FILLER_20_46
*1496 FILLER_20_54
*1497 FILLER_20_6
*1498 FILLER_20_60
*1499 FILLER_20_80
*1500 FILLER_20_88
*1501 FILLER_20_94
*1502 FILLER_21_107
*1503 FILLER_21_111
*1504 FILLER_21_122
*1505 FILLER_21_129
*1506 FILLER_21_137
*1507 FILLER_21_14
*1508 FILLER_21_143
*1509 FILLER_21_150
*1510 FILLER_21_154
*1511 FILLER_21_159
*1512 FILLER_21_167
*1513 FILLER_21_185
*1514 FILLER_21_192
*1515 FILLER_21_199
*1516 FILLER_21_206
*1517 FILLER_21_220
*1518 FILLER_21_23
*1519 FILLER_21_230
*1520 FILLER_21_234
*1521 FILLER_21_241
*1522 FILLER_21_247
*1523 FILLER_21_256
*1524 FILLER_21_267
*1525 FILLER_21_276
*1526 FILLER_21_288
*1527 FILLER_21_296
*1528 FILLER_21_3
*1529 FILLER_21_37
*1530 FILLER_21_47
*1531 FILLER_21_55
*1532 FILLER_21_7
*1533 FILLER_21_73
*1534 FILLER_21_77
*1535 FILLER_21_81
*1536 FILLER_21_89
*1537 FILLER_22_106
*1538 FILLER_22_123
*1539 FILLER_22_136
*1540 FILLER_22_162
*1541 FILLER_22_170
*1542 FILLER_22_179
*1543 FILLER_22_183
*1544 FILLER_22_19
*1545 FILLER_22_192
*1546 FILLER_22_197
*1547 FILLER_22_208
*1548 FILLER_22_214
*1549 FILLER_22_223
*1550 FILLER_22_227
*1551 FILLER_22_235
*1552 FILLER_22_241
*1553 FILLER_22_248
*1554 FILLER_22_256
*1555 FILLER_22_267
*1556 FILLER_22_27
*1557 FILLER_22_278
*1558 FILLER_22_282
*1559 FILLER_22_290
*1560 FILLER_22_298
*1561 FILLER_22_34
*1562 FILLER_22_40
*1563 FILLER_22_44
*1564 FILLER_22_61
*1565 FILLER_22_74
*1566 FILLER_22_82
*1567 FILLER_22_94
*1568 FILLER_23_105
*1569 FILLER_23_111
*1570 FILLER_23_116
*1571 FILLER_23_136
*1572 FILLER_23_15
*1573 FILLER_23_161
*1574 FILLER_23_167
*1575 FILLER_23_177
*1576 FILLER_23_185
*1577 FILLER_23_196
*1578 FILLER_23_200
*1579 FILLER_23_205
*1580 FILLER_23_217
*1581 FILLER_23_22
*1582 FILLER_23_223
*1583 FILLER_23_235
*1584 FILLER_23_241
*1585 FILLER_23_247
*1586 FILLER_23_264
*1587 FILLER_23_268
*1588 FILLER_23_276
*1589 FILLER_23_281
*1590 FILLER_23_285
*1591 FILLER_23_293
*1592 FILLER_23_3
*1593 FILLER_23_42
*1594 FILLER_23_46
*1595 FILLER_23_50
*1596 FILLER_23_60
*1597 FILLER_23_66
*1598 FILLER_23_8
*1599 FILLER_23_83
*1600 FILLER_24_100
*1601 FILLER_24_106
*1602 FILLER_24_111
*1603 FILLER_24_123
*1604 FILLER_24_129
*1605 FILLER_24_136
*1606 FILLER_24_145
*1607 FILLER_24_149
*1608 FILLER_24_155
*1609 FILLER_24_16
*1610 FILLER_24_164
*1611 FILLER_24_168
*1612 FILLER_24_177
*1613 FILLER_24_192
*1614 FILLER_24_207
*1615 FILLER_24_218
*1616 FILLER_24_227
*1617 FILLER_24_23
*1618 FILLER_24_235
*1619 FILLER_24_246
*1620 FILLER_24_258
*1621 FILLER_24_267
*1622 FILLER_24_27
*1623 FILLER_24_277
*1624 FILLER_24_281
*1625 FILLER_24_29
*1626 FILLER_24_292
*1627 FILLER_24_298
*1628 FILLER_24_3
*1629 FILLER_24_37
*1630 FILLER_24_57
*1631 FILLER_24_79
*1632 FILLER_24_8
*1633 FILLER_24_83
*1634 FILLER_24_88
*1635 FILLER_25_105
*1636 FILLER_25_111
*1637 FILLER_25_113
*1638 FILLER_25_121
*1639 FILLER_25_131
*1640 FILLER_25_138
*1641 FILLER_25_145
*1642 FILLER_25_153
*1643 FILLER_25_164
*1644 FILLER_25_169
*1645 FILLER_25_17
*1646 FILLER_25_189
*1647 FILLER_25_203
*1648 FILLER_25_214
*1649 FILLER_25_222
*1650 FILLER_25_233
*1651 FILLER_25_237
*1652 FILLER_25_248
*1653 FILLER_25_252
*1654 FILLER_25_258
*1655 FILLER_25_266
*1656 FILLER_25_278
*1657 FILLER_25_289
*1658 FILLER_25_297
*1659 FILLER_25_3
*1660 FILLER_25_31
*1661 FILLER_25_39
*1662 FILLER_25_51
*1663 FILLER_25_55
*1664 FILLER_25_60
*1665 FILLER_25_7
*1666 FILLER_25_75
*1667 FILLER_25_92
*1668 FILLER_26_107
*1669 FILLER_26_127
*1670 FILLER_26_136
*1671 FILLER_26_157
*1672 FILLER_26_170
*1673 FILLER_26_177
*1674 FILLER_26_185
*1675 FILLER_26_19
*1676 FILLER_26_191
*1677 FILLER_26_195
*1678 FILLER_26_204
*1679 FILLER_26_222
*1680 FILLER_26_237
*1681 FILLER_26_245
*1682 FILLER_26_251
*1683 FILLER_26_259
*1684 FILLER_26_27
*1685 FILLER_26_285
*1686 FILLER_26_29
*1687 FILLER_26_293
*1688 FILLER_26_49
*1689 FILLER_26_53
*1690 FILLER_26_57
*1691 FILLER_26_77
*1692 FILLER_26_83
*1693 FILLER_26_85
*1694 FILLER_27_10
*1695 FILLER_27_111
*1696 FILLER_27_113
*1697 FILLER_27_126
*1698 FILLER_27_130
*1699 FILLER_27_14
*1700 FILLER_27_140
*1701 FILLER_27_144
*1702 FILLER_27_153
*1703 FILLER_27_163
*1704 FILLER_27_167
*1705 FILLER_27_179
*1706 FILLER_27_183
*1707 FILLER_27_189
*1708 FILLER_27_203
*1709 FILLER_27_215
*1710 FILLER_27_223
*1711 FILLER_27_230
*1712 FILLER_27_244
*1713 FILLER_27_250
*1714 FILLER_27_258
*1715 FILLER_27_270
*1716 FILLER_27_278
*1717 FILLER_27_281
*1718 FILLER_27_290
*1719 FILLER_27_298
*1720 FILLER_27_34
*1721 FILLER_27_46
*1722 FILLER_27_54
*1723 FILLER_27_6
*1724 FILLER_27_66
*1725 FILLER_27_74
*1726 FILLER_27_92
*1727 FILLER_27_99
*1728 FILLER_28_10
*1729 FILLER_28_109
*1730 FILLER_28_119
*1731 FILLER_28_132
*1732 FILLER_28_14
*1733 FILLER_28_141
*1734 FILLER_28_165
*1735 FILLER_28_169
*1736 FILLER_28_186
*1737 FILLER_28_194
*1738 FILLER_28_197
*1739 FILLER_28_206
*1740 FILLER_28_220
*1741 FILLER_28_229
*1742 FILLER_28_24
*1743 FILLER_28_247
*1744 FILLER_28_251
*1745 FILLER_28_257
*1746 FILLER_28_265
*1747 FILLER_28_273
*1748 FILLER_28_284
*1749 FILLER_28_29
*1750 FILLER_28_295
*1751 FILLER_28_3
*1752 FILLER_28_33
*1753 FILLER_28_44
*1754 FILLER_28_48
*1755 FILLER_28_65
*1756 FILLER_28_71
*1757 FILLER_28_77
*1758 FILLER_28_83
*1759 FILLER_28_85
*1760 FILLER_28_97
*1761 FILLER_29_106
*1762 FILLER_29_12
*1763 FILLER_29_129
*1764 FILLER_29_137
*1765 FILLER_29_147
*1766 FILLER_29_159
*1767 FILLER_29_167
*1768 FILLER_29_177
*1769 FILLER_29_188
*1770 FILLER_29_199
*1771 FILLER_29_212
*1772 FILLER_29_220
*1773 FILLER_29_232
*1774 FILLER_29_243
*1775 FILLER_29_25
*1776 FILLER_29_254
*1777 FILLER_29_265
*1778 FILLER_29_274
*1779 FILLER_29_289
*1780 FILLER_29_297
*1781 FILLER_29_3
*1782 FILLER_29_32
*1783 FILLER_29_36
*1784 FILLER_29_44
*1785 FILLER_29_51
*1786 FILLER_29_55
*1787 FILLER_29_57
*1788 FILLER_29_74
*1789 FILLER_29_86
*1790 FILLER_2_10
*1791 FILLER_2_121
*1792 FILLER_2_128
*1793 FILLER_2_141
*1794 FILLER_2_147
*1795 FILLER_2_159
*1796 FILLER_2_176
*1797 FILLER_2_18
*1798 FILLER_2_180
*1799 FILLER_2_190
*1800 FILLER_2_197
*1801 FILLER_2_209
*1802 FILLER_2_213
*1803 FILLER_2_230
*1804 FILLER_2_243
*1805 FILLER_2_251
*1806 FILLER_2_26
*1807 FILLER_2_262
*1808 FILLER_2_274
*1809 FILLER_2_286
*1810 FILLER_2_298
*1811 FILLER_2_36
*1812 FILLER_2_51
*1813 FILLER_2_6
*1814 FILLER_2_62
*1815 FILLER_2_76
*1816 FILLER_2_85
*1817 FILLER_2_89
*1818 FILLER_2_99
*1819 FILLER_30_101
*1820 FILLER_30_113
*1821 FILLER_30_126
*1822 FILLER_30_136
*1823 FILLER_30_141
*1824 FILLER_30_146
*1825 FILLER_30_158
*1826 FILLER_30_164
*1827 FILLER_30_173
*1828 FILLER_30_179
*1829 FILLER_30_183
*1830 FILLER_30_19
*1831 FILLER_30_190
*1832 FILLER_30_197
*1833 FILLER_30_209
*1834 FILLER_30_227
*1835 FILLER_30_235
*1836 FILLER_30_246
*1837 FILLER_30_253
*1838 FILLER_30_261
*1839 FILLER_30_268
*1840 FILLER_30_27
*1841 FILLER_30_276
*1842 FILLER_30_284
*1843 FILLER_30_29
*1844 FILLER_30_291
*1845 FILLER_30_38
*1846 FILLER_30_46
*1847 FILLER_30_64
*1848 FILLER_30_80
*1849 FILLER_30_93
*1850 FILLER_31_106
*1851 FILLER_31_113
*1852 FILLER_31_117
*1853 FILLER_31_124