*SPEF "ieee 1481-1999"
*DESIGN "meriac_tt02_play_tune"
*DATE "11:11:11 Fri 11 11, 1111"
*VENDOR "OpenRCX"
*PROGRAM "Parallel Extraction"
*VERSION "1.0"
*DESIGN_FLOW "NAME_SCOPE LOCAL" "PIN_CAP NONE"
*DIVIDER /
*DELIMITER :
*BUS_DELIMITER []
*T_UNIT 1 NS
*C_UNIT 1 PF
*R_UNIT 1 OHM
*L_UNIT 1 HENRY

*NAME_MAP
*1 io_in[0]
*2 io_in[1]
*3 io_in[2]
*4 io_in[3]
*5 io_in[4]
*6 io_in[5]
*7 io_in[6]
*8 io_in[7]
*9 io_out[0]
*10 io_out[1]
*11 net2
*12 net3
*13 net4
*14 net5
*15 net6
*16 net7
*19 _007_
*20 _008_
*21 _009_
*22 _010_
*23 _011_
*24 _012_
*25 _013_
*26 _014_
*27 _015_
*28 _016_
*29 _017_
*30 _018_
*31 _019_
*32 _020_
*33 _021_
*34 _022_
*35 _023_
*36 _024_
*37 _025_
*38 _026_
*39 _027_
*40 _028_
*41 _029_
*42 _030_
*43 _031_
*44 _032_
*45 _033_
*46 _034_
*47 _035_
*48 _036_
*49 _037_
*50 _038_
*51 _039_
*52 _040_
*53 _041_
*54 _042_
*55 _043_
*56 _044_
*57 _045_
*58 _046_
*59 _047_
*60 _048_
*61 _049_
*62 _050_
*63 _051_
*64 _052_
*65 _053_
*66 _054_
*67 _055_
*68 _056_
*69 _057_
*70 _058_
*71 _059_
*72 _060_
*73 _061_
*74 _062_
*75 _063_
*76 _064_
*77 _065_
*78 _066_
*79 _067_
*80 _068_
*81 _069_
*82 _070_
*83 _071_
*84 _072_
*85 _073_
*86 _074_
*87 _075_
*88 _076_
*89 _077_
*90 _078_
*91 _079_
*92 _080_
*93 _081_
*94 _082_
*95 _083_
*96 _084_
*97 _085_
*98 _086_
*99 _087_
*100 _088_
*101 _089_
*102 _090_
*103 _091_
*104 _092_
*105 _093_
*106 _094_
*107 _095_
*108 _096_
*109 _097_
*110 _098_
*111 _099_
*112 _100_
*113 _101_
*114 _102_
*115 _103_
*116 _104_
*117 _105_
*118 _106_
*119 _107_
*120 _108_
*121 _109_
*122 _110_
*123 _111_
*124 _112_
*125 _113_
*126 _114_
*127 _115_
*128 _116_
*129 _117_
*130 _118_
*131 _119_
*132 _120_
*133 _121_
*134 _122_
*135 _123_
*136 _124_
*137 _125_
*138 _126_
*139 _127_
*140 _128_
*141 _129_
*142 _130_
*143 _131_
*144 _132_
*145 _133_
*146 _134_
*147 _135_
*148 _136_
*149 _137_
*150 _138_
*151 _139_
*152 _140_
*153 _141_
*154 _142_
*155 _143_
*156 _144_
*157 _145_
*158 _146_
*159 _147_
*160 _148_
*161 _149_
*162 _150_
*163 _151_
*164 _152_
*165 _153_
*166 _154_
*167 _155_
*168 _156_
*169 _157_
*170 _158_
*171 _159_
*172 _160_
*173 _161_
*174 _162_
*175 _163_
*176 _164_
*177 _165_
*178 _166_
*179 _167_
*180 _168_
*181 _169_
*182 _170_
*183 _171_
*184 _172_
*185 _173_
*186 _174_
*187 _175_
*188 _176_
*189 _177_
*190 _178_
*191 _179_
*192 _180_
*193 _181_
*194 _182_
*195 _183_
*196 _184_
*197 _185_
*198 _186_
*199 _187_
*200 _188_
*201 _189_
*202 _190_
*203 _191_
*204 clknet_0__140_
*205 clknet_0_io_in[0]
*206 clknet_1_0__leaf__140_
*207 clknet_1_0__leaf_io_in[0]
*208 clknet_1_1__leaf__140_
*209 clknet_1_1__leaf_io_in[0]
*210 counter\[0\]
*211 counter\[1\]
*212 counter\[2\]
*213 counter\[3\]
*214 counter\[4\]
*215 counter\[5\]
*216 counter\[6\]
*217 meriac_tune_db\.address\[0\]
*218 meriac_tune_db\.address\[1\]
*219 meriac_tune_db\.address\[2\]
*220 meriac_tune_db\.address\[3\]
*221 meriac_tune_db\.address\[4\]
*222 meriac_tune_db\.address\[5\]
*223 meriac_tune_db\.address\[6\]
*224 net1
*225 net10
*226 net11
*227 net12
*228 net13
*229 net14
*230 net8
*231 net9
*232 speaker
*233 FILLER_0_102
*234 FILLER_0_110
*235 FILLER_0_113
*236 FILLER_0_125
*237 FILLER_0_137
*238 FILLER_0_141
*239 FILLER_0_153
*240 FILLER_0_165
*241 FILLER_0_169
*242 FILLER_0_181
*243 FILLER_0_19
*244 FILLER_0_193
*245 FILLER_0_197
*246 FILLER_0_209
*247 FILLER_0_221
*248 FILLER_0_225
*249 FILLER_0_237
*250 FILLER_0_249
*251 FILLER_0_253
*252 FILLER_0_265
*253 FILLER_0_27
*254 FILLER_0_277
*255 FILLER_0_281
*256 FILLER_0_29
*257 FILLER_0_293
*258 FILLER_0_38
*259 FILLER_0_45
*260 FILLER_0_52
*261 FILLER_0_57
*262 FILLER_0_63
*263 FILLER_0_71
*264 FILLER_0_80
*265 FILLER_0_88
*266 FILLER_0_95
*267 FILLER_10_106
*268 FILLER_10_118
*269 FILLER_10_12
*270 FILLER_10_130
*271 FILLER_10_138
*272 FILLER_10_141
*273 FILLER_10_153
*274 FILLER_10_165
*275 FILLER_10_177
*276 FILLER_10_189
*277 FILLER_10_195
*278 FILLER_10_197
*279 FILLER_10_209
*280 FILLER_10_221
*281 FILLER_10_233
*282 FILLER_10_24
*283 FILLER_10_245
*284 FILLER_10_251
*285 FILLER_10_253
*286 FILLER_10_265
*287 FILLER_10_277
*288 FILLER_10_289
*289 FILLER_10_297
*290 FILLER_10_3
*291 FILLER_10_38
*292 FILLER_10_48
*293 FILLER_10_66
*294 FILLER_10_70
*295 FILLER_10_80
*296 FILLER_10_93
*297 FILLER_11_103
*298 FILLER_11_111
*299 FILLER_11_113
*300 FILLER_11_125
*301 FILLER_11_137
*302 FILLER_11_149
*303 FILLER_11_16
*304 FILLER_11_161
*305 FILLER_11_167
*306 FILLER_11_169
*307 FILLER_11_181
*308 FILLER_11_193
*309 FILLER_11_205
*310 FILLER_11_217
*311 FILLER_11_223
*312 FILLER_11_225
*313 FILLER_11_237
*314 FILLER_11_249
*315 FILLER_11_25
*316 FILLER_11_261
*317 FILLER_11_273
*318 FILLER_11_279
*319 FILLER_11_281
*320 FILLER_11_293
*321 FILLER_11_3
*322 FILLER_11_38
*323 FILLER_11_52
*324 FILLER_11_65
*325 FILLER_11_74
*326 FILLER_11_8
*327 FILLER_11_82
*328 FILLER_11_90
*329 FILLER_12_103
*330 FILLER_12_110
*331 FILLER_12_122
*332 FILLER_12_134
*333 FILLER_12_141
*334 FILLER_12_153
*335 FILLER_12_165
*336 FILLER_12_177
*337 FILLER_12_189
*338 FILLER_12_19
*339 FILLER_12_195
*340 FILLER_12_197
*341 FILLER_12_209
*342 FILLER_12_221
*343 FILLER_12_233
*344 FILLER_12_245
*345 FILLER_12_251
*346 FILLER_12_253
*347 FILLER_12_265
*348 FILLER_12_27
*349 FILLER_12_277
*350 FILLER_12_289
*351 FILLER_12_297
*352 FILLER_12_39
*353 FILLER_12_47
*354 FILLER_12_53
*355 FILLER_12_62
*356 FILLER_12_70
*357 FILLER_12_78
*358 FILLER_12_85
*359 FILLER_12_95
*360 FILLER_13_105
*361 FILLER_13_111
*362 FILLER_13_113
*363 FILLER_13_125
*364 FILLER_13_137
*365 FILLER_13_149
*366 FILLER_13_16
*367 FILLER_13_161
*368 FILLER_13_167
*369 FILLER_13_169
*370 FILLER_13_181
*371 FILLER_13_193
*372 FILLER_13_205
*373 FILLER_13_217
*374 FILLER_13_223
*375 FILLER_13_225
*376 FILLER_13_237
*377 FILLER_13_249
*378 FILLER_13_261
*379 FILLER_13_27
*380 FILLER_13_273
*381 FILLER_13_279
*382 FILLER_13_281
*383 FILLER_13_293
*384 FILLER_13_38
*385 FILLER_13_52
*386 FILLER_13_65
*387 FILLER_13_7
*388 FILLER_13_73
*389 FILLER_13_81
*390 FILLER_13_89
*391 FILLER_13_97
*392 FILLER_14_104
*393 FILLER_14_115
*394 FILLER_14_127
*395 FILLER_14_13
*396 FILLER_14_139
*397 FILLER_14_141
*398 FILLER_14_153
*399 FILLER_14_165
*400 FILLER_14_177
*401 FILLER_14_189
*402 FILLER_14_195
*403 FILLER_14_197
*404 FILLER_14_209
*405 FILLER_14_221
*406 FILLER_14_233
*407 FILLER_14_24
*408 FILLER_14_245
*409 FILLER_14_251
*410 FILLER_14_253
*411 FILLER_14_265
*412 FILLER_14_277
*413 FILLER_14_289
*414 FILLER_14_297
*415 FILLER_14_36
*416 FILLER_14_43
*417 FILLER_14_56
*418 FILLER_14_6
*419 FILLER_14_70
*420 FILLER_14_79
*421 FILLER_14_83
*422 FILLER_14_89
*423 FILLER_14_93
*424 FILLER_15_106
*425 FILLER_15_113
*426 FILLER_15_125
*427 FILLER_15_137
*428 FILLER_15_149
*429 FILLER_15_161
*430 FILLER_15_167
*431 FILLER_15_169
*432 FILLER_15_181
*433 FILLER_15_19
*434 FILLER_15_193
*435 FILLER_15_205
*436 FILLER_15_217
*437 FILLER_15_223
*438 FILLER_15_225
*439 FILLER_15_237
*440 FILLER_15_249
*441 FILLER_15_261
*442 FILLER_15_273
*443 FILLER_15_279
*444 FILLER_15_281
*445 FILLER_15_293
*446 FILLER_15_45
*447 FILLER_15_52
*448 FILLER_15_66
*449 FILLER_15_79
*450 FILLER_15_92
*451 FILLER_16_107
*452 FILLER_16_119
*453 FILLER_16_131
*454 FILLER_16_139
*455 FILLER_16_14
*456 FILLER_16_141
*457 FILLER_16_153
*458 FILLER_16_165
*459 FILLER_16_177
*460 FILLER_16_189
*461 FILLER_16_195
*462 FILLER_16_197
*463 FILLER_16_209
*464 FILLER_16_221
*465 FILLER_16_233
*466 FILLER_16_24
*467 FILLER_16_245
*468 FILLER_16_251
*469 FILLER_16_253
*470 FILLER_16_265
*471 FILLER_16_277
*472 FILLER_16_289
*473 FILLER_16_297
*474 FILLER_16_3
*475 FILLER_16_32
*476 FILLER_16_52
*477 FILLER_16_7
*478 FILLER_16_70
*479 FILLER_16_79
*480 FILLER_16_83
*481 FILLER_16_89
*482 FILLER_17_102
*483 FILLER_17_110
*484 FILLER_17_113
*485 FILLER_17_12
*486 FILLER_17_125
*487 FILLER_17_137
*488 FILLER_17_149
*489 FILLER_17_161
*490 FILLER_17_167
*491 FILLER_17_169
*492 FILLER_17_181
*493 FILLER_17_193
*494 FILLER_17_205
*495 FILLER_17_217
*496 FILLER_17_223
*497 FILLER_17_225
*498 FILLER_17_237
*499 FILLER_17_249
*500 FILLER_17_261
*501 FILLER_17_273
*502 FILLER_17_279
*503 FILLER_17_281
*504 FILLER_17_293
*505 FILLER_17_3
*506 FILLER_17_36
*507 FILLER_17_50
*508 FILLER_17_57
*509 FILLER_17_64
*510 FILLER_17_71
*511 FILLER_17_82
*512 FILLER_17_94
*513 FILLER_18_105
*514 FILLER_18_117
*515 FILLER_18_129
*516 FILLER_18_137
*517 FILLER_18_141
*518 FILLER_18_153
*519 FILLER_18_165
*520 FILLER_18_177
*521 FILLER_18_189
*522 FILLER_18_19
*523 FILLER_18_195
*524 FILLER_18_197
*525 FILLER_18_209
*526 FILLER_18_221
*527 FILLER_18_233
*528 FILLER_18_245
*529 FILLER_18_251
*530 FILLER_18_253
*531 FILLER_18_265
*532 FILLER_18_27
*533 FILLER_18_277
*534 FILLER_18_289
*535 FILLER_18_297
*536 FILLER_18_38
*537 FILLER_18_46
*538 FILLER_18_55
*539 FILLER_18_66
*540 FILLER_18_72
*541 FILLER_18_79
*542 FILLER_18_83
*543 FILLER_18_85
*544 FILLER_18_89
*545 FILLER_18_97
*546 FILLER_19_101
*547 FILLER_19_109
*548 FILLER_19_113
*549 FILLER_19_125
*550 FILLER_19_13
*551 FILLER_19_137
*552 FILLER_19_149
*553 FILLER_19_161
*554 FILLER_19_167
*555 FILLER_19_169
*556 FILLER_19_181
*557 FILLER_19_19
*558 FILLER_19_193
*559 FILLER_19_205
*560 FILLER_19_217
*561 FILLER_19_223
*562 FILLER_19_225
*563 FILLER_19_237
*564 FILLER_19_249
*565 FILLER_19_261
*566 FILLER_19_273
*567 FILLER_19_279
*568 FILLER_19_28
*569 FILLER_19_281
*570 FILLER_19_293
*571 FILLER_19_3
*572 FILLER_19_39
*573 FILLER_19_49
*574 FILLER_19_55
*575 FILLER_19_57
*576 FILLER_19_63
*577 FILLER_19_69
*578 FILLER_19_84
*579 FILLER_19_9
*580 FILLER_19_93
*581 FILLER_1_103
*582 FILLER_1_111
*583 FILLER_1_113
*584 FILLER_1_125
*585 FILLER_1_137
*586 FILLER_1_149
*587 FILLER_1_161
*588 FILLER_1_167
*589 FILLER_1_169
*590 FILLER_1_181
*591 FILLER_1_193
*592 FILLER_1_205
*593 FILLER_1_217
*594 FILLER_1_223
*595 FILLER_1_225
*596 FILLER_1_237
*597 FILLER_1_249
*598 FILLER_1_261
*599 FILLER_1_27
*600 FILLER_1_273
*601 FILLER_1_279
*602 FILLER_1_281
*603 FILLER_1_293
*604 FILLER_1_3
*605 FILLER_1_47
*606 FILLER_1_55
*607 FILLER_1_7
*608 FILLER_1_70
*609 FILLER_1_84
*610 FILLER_1_96
*611 FILLER_20_101
*612 FILLER_20_113
*613 FILLER_20_125
*614 FILLER_20_137
*615 FILLER_20_141
*616 FILLER_20_153
*617 FILLER_20_165
*618 FILLER_20_177
*619 FILLER_20_189
*620 FILLER_20_19
*621 FILLER_20_195
*622 FILLER_20_197
*623 FILLER_20_209
*624 FILLER_20_221
*625 FILLER_20_233
*626 FILLER_20_245
*627 FILLER_20_251
*628 FILLER_20_253
*629 FILLER_20_265
*630 FILLER_20_27
*631 FILLER_20_277
*632 FILLER_20_289
*633 FILLER_20_29
*634 FILLER_20_297
*635 FILLER_20_46
*636 FILLER_20_58
*637 FILLER_20_68
*638 FILLER_20_80
*639 FILLER_20_92
*640 FILLER_21_105
*641 FILLER_21_111
*642 FILLER_21_113
*643 FILLER_21_125
*644 FILLER_21_137
*645 FILLER_21_149
*646 FILLER_21_15
*647 FILLER_21_161
*648 FILLER_21_167
*649 FILLER_21_169
*650 FILLER_21_181
*651 FILLER_21_193
*652 FILLER_21_205
*653 FILLER_21_217
*654 FILLER_21_223
*655 FILLER_21_225
*656 FILLER_21_237
*657 FILLER_21_249
*658 FILLER_21_261
*659 FILLER_21_273
*660 FILLER_21_279
*661 FILLER_21_281
*662 FILLER_21_293
*663 FILLER_21_3
*664 FILLER_21_36
*665 FILLER_21_52
*666 FILLER_21_64
*667 FILLER_21_72
*668 FILLER_21_93
*669 FILLER_22_109
*670 FILLER_22_11
*671 FILLER_22_121
*672 FILLER_22_133
*673 FILLER_22_139
*674 FILLER_22_141
*675 FILLER_22_153
*676 FILLER_22_16
*677 FILLER_22_165
*678 FILLER_22_177
*679 FILLER_22_189
*680 FILLER_22_195
*681 FILLER_22_197
*682 FILLER_22_209
*683 FILLER_22_221
*684 FILLER_22_233
*685 FILLER_22_24
*686 FILLER_22_245
*687 FILLER_22_251
*688 FILLER_22_253
*689 FILLER_22_265
*690 FILLER_22_277
*691 FILLER_22_289
*692 FILLER_22_29
*693 FILLER_22_297
*694 FILLER_22_3
*695 FILLER_22_39
*696 FILLER_22_51
*697 FILLER_22_60
*698 FILLER_22_72
*699 FILLER_22_79
*700 FILLER_22_83
*701 FILLER_22_85
*702 FILLER_22_97
*703 FILLER_23_104
*704 FILLER_23_11
*705 FILLER_23_113
*706 FILLER_23_125
*707 FILLER_23_137
*708 FILLER_23_149
*709 FILLER_23_161
*710 FILLER_23_167
*711 FILLER_23_169
*712 FILLER_23_181
*713 FILLER_23_193
*714 FILLER_23_20
*715 FILLER_23_205
*716 FILLER_23_217
*717 FILLER_23_223
*718 FILLER_23_225
*719 FILLER_23_237
*720 FILLER_23_249
*721 FILLER_23_261
*722 FILLER_23_273
*723 FILLER_23_279
*724 FILLER_23_281
*725 FILLER_23_293
*726 FILLER_23_3
*727 FILLER_23_32
*728 FILLER_23_40
*729 FILLER_23_50
*730 FILLER_23_57
*731 FILLER_23_68
*732 FILLER_23_7
*733 FILLER_23_80
*734 FILLER_23_92
*735 FILLER_24_109
*736 FILLER_24_121
*737 FILLER_24_133
*738 FILLER_24_139
*739 FILLER_24_141
*740 FILLER_24_153
*741 FILLER_24_165
*742 FILLER_24_177
*743 FILLER_24_189
*744 FILLER_24_19
*745 FILLER_24_195
*746 FILLER_24_197
*747 FILLER_24_209
*748 FILLER_24_221
*749 FILLER_24_233
*750 FILLER_24_245
*751 FILLER_24_251
*752 FILLER_24_253
*753 FILLER_24_265
*754 FILLER_24_27
*755 FILLER_24_277
*756 FILLER_24_289
*757 FILLER_24_297
*758 FILLER_24_33
*759 FILLER_24_37
*760 FILLER_24_54
*761 FILLER_24_58
*762 FILLER_24_75
*763 FILLER_24_83
*764 FILLER_24_85
*765 FILLER_24_97
*766 FILLER_25_101
*767 FILLER_25_109
*768 FILLER_25_11
*769 FILLER_25_113
*770 FILLER_25_125
*771 FILLER_25_137
*772 FILLER_25_149
*773 FILLER_25_161
*774 FILLER_25_167
*775 FILLER_25_169
*776 FILLER_25_181
*777 FILLER_25_19
*778 FILLER_25_193
*779 FILLER_25_205
*780 FILLER_25_217
*781 FILLER_25_223
*782 FILLER_25_225
*783 FILLER_25_237
*784 FILLER_25_249
*785 FILLER_25_261
*786 FILLER_25_273
*787 FILLER_25_279
*788 FILLER_25_281
*789 FILLER_25_293
*790 FILLER_25_3
*791 FILLER_25_39
*792 FILLER_25_47
*793 FILLER_25_52
*794 FILLER_25_57
*795 FILLER_25_7
*796 FILLER_25_77
*797 FILLER_25_89
*798 FILLER_26_109
*799 FILLER_26_121
*800 FILLER_26_133
*801 FILLER_26_139
*802 FILLER_26_141
*803 FILLER_26_15
*804 FILLER_26_153
*805 FILLER_26_165
*806 FILLER_26_177
*807 FILLER_26_189
*808 FILLER_26_195
*809 FILLER_26_197
*810 FILLER_26_209
*811 FILLER_26_221
*812 FILLER_26_23
*813 FILLER_26_233
*814 FILLER_26_245
*815 FILLER_26_251
*816 FILLER_26_253
*817 FILLER_26_265
*818 FILLER_26_27
*819 FILLER_26_277
*820 FILLER_26_289
*821 FILLER_26_29
*822 FILLER_26_297
*823 FILLER_26_3
*824 FILLER_26_40
*825 FILLER_26_47
*826 FILLER_26_71
*827 FILLER_26_78
*828 FILLER_26_85
*829 FILLER_26_97
*830 FILLER_27_109
*831 FILLER_27_11
*832 FILLER_27_113
*833 FILLER_27_125
*834 FILLER_27_137
*835 FILLER_27_149
*836 FILLER_27_15
*837 FILLER_27_161
*838 FILLER_27_167
*839 FILLER_27_169
*840 FILLER_27_181
*841 FILLER_27_193
*842 FILLER_27_205
*843 FILLER_27_217
*844 FILLER_27_223
*845 FILLER_27_225
*846 FILLER_27_237
*847 FILLER_27_249
*848 FILLER_27_261
*849 FILLER_27_273
*850 FILLER_27_279
*851 FILLER_27_281
*852 FILLER_27_293
*853 FILLER_27_3
*854 FILLER_27_30
*855 FILLER_27_52
*856 FILLER_27_73
*857 FILLER_27_85
*858 FILLER_27_97
*859 FILLER_28_109
*860 FILLER_28_121
*861 FILLER_28_133
*862 FILLER_28_139
*863 FILLER_28_141
*864 FILLER_28_153
*865 FILLER_28_165
*866 FILLER_28_177
*867 FILLER_28_189
*868 FILLER_28_195
*869 FILLER_28_197
*870 FILLER_28_209
*871 FILLER_28_221
*872 FILLER_28_23
*873 FILLER_28_233
*874 FILLER_28_245
*875 FILLER_28_251
*876 FILLER_28_253
*877 FILLER_28_265
*878 FILLER_28_27
*879 FILLER_28_277
*880 FILLER_28_289
*881 FILLER_28_29
*882 FILLER_28_297
*883 FILLER_28_3
*884 FILLER_28_51
*885 FILLER_28_57
*886 FILLER_28_61
*887 FILLER_28_73
*888 FILLER_28_81
*889 FILLER_28_85
*890 FILLER_28_97
*891 FILLER_29_108
*892 FILLER_29_113
*893 FILLER_29_12
*894 FILLER_29_125
*895 FILLER_29_137
*896 FILLER_29_149
*897 FILLER_29_16
*898 FILLER_29_161
*899 FILLER_29_167
*900 FILLER_29_169
*901 FILLER_29_181
*902 FILLER_29_193
*903 FILLER_29_205
*904 FILLER_29_217
*905 FILLER_29_22
*906 FILLER_29_223
*907 FILLER_29_225
*908 FILLER_29_237
*909 FILLER_29_249
*910 FILLER_29_261
*911 FILLER_29_273
*912 FILLER_29_279
*913 FILLER_29_281
*914 FILLER_29_293
*915 FILLER_29_3
*916 FILLER_29_31
*917 FILLER_29_51
*918 FILLER_29_55
*919 FILLER_29_60
*920 FILLER_29_7
*921 FILLER_29_72
*922 FILLER_29_84
*923 FILLER_29_96
*924 FILLER_2_10
*925 FILLER_2_106
*926 FILLER_2_113
*927 FILLER_2_125
*928 FILLER_2_137
*929 FILLER_2_141
*930 FILLER_2_153
*931 FILLER_2_165
*932 FILLER_2_17
*933 FILLER_2_177
*934 FILLER_2_189
*935 FILLER_2_195
*936 FILLER_2_197
*937 FILLER_2_209
*938 FILLER_2_221
*939 FILLER_2_233
*940 FILLER_2_24
*941 FILLER_2_245
*942 FILLER_2_251
*943 FILLER_2_253
*944 FILLER_2_265
*945 FILLER_2_277
*946 FILLER_2_289
*947 FILLER_2_29
*948 FILLER_2_297
*949 FILLER_2_3
*950 FILLER_2_38
*951 FILLER_2_45
*952 FILLER_2_59
*953 FILLER_2_72
*954 FILLER_2_80
*955 FILLER_2_85
*956 FILLER_2_99
*957 FILLER_30_109
*958 FILLER_30_121
*959 FILLER_30_133
*960 FILLER_30_139
*961 FILLER_30_141
*962 FILLER_30_153
*963 FILLER_30_165
*964 FILLER_30_177
*965 FILLER_30_189
*966 FILLER_30_19
*967 FILLER_30_195
*968 FILLER_30_197
*969 FILLER_30_209
*970 FILLER_30_221
*971 FILLER_30_233
*972 FILLER_30_245
*973 FILLER_30_251
*974 FILLER_30_253
*975 FILLER_30_265
*976 FILLER_30_27
*977 FILLER_30_277
*978 FILLER_30_289
*979 FILLER_30_297
*980 FILLER_30_33
*981 FILLER_30_41
*982 FILLER_30_53
*983 FILLER_30_65
*984 FILLER_30_77
*985 FILLER_30_83
*986 FILLER_30_85
*987 FILLER_30_97
*988 FILLER_31_105
*989 FILLER_31_111
*990 FILLER_31_113
*991 FILLER_31_125
*992 FILLER_31_137
*993 FILLER_31_149
*994 FILLER_31_161
*995 FILLER_31_167
*996 FILLER_31_169
*997 FILLER_31_181
*998 FILLER_31_193
*999 FILLER_31_205
*1000 FILLER_31_21
*1001 FILLER_31_217
*1002 FILLER_31_223
*1003 FILLER_31_225
*1004 FILLER_31_237
*1005 FILLER_31_249
*1006 FILLER_31_25
*1007 FILLER_31_261
*1008 FILLER_31_273
*1009 FILLER_31_279
*1010 FILLER_31_281
*1011 FILLER_31_29
*1012 FILLER_31_293
*1013 FILLER_31_3
*1014 FILLER_31_41
*1015 FILLER_31_53
*1016 FILLER_31_57
*1017 FILLER_31_69
*1018 FILLER_31_81
*1019 FILLER_31_9
*1020 FILLER_31_93
*1021 FILLER_32_109
*1022 FILLER_32_121
*1023 FILLER_32_133
*1024 FILLER_32_139
*1025 FILLER_32_141
*1026 FILLER_32_15
*1027 FILLER_32_153
*1028 FILLER_32_165
*1029 FILLER_32_177
*1030 FILLER_32_189
*1031 FILLER_32_195
*1032 FILLER_32_197
*1033 FILLER_32_209
*1034 FILLER_32_221
*1035 FILLER_32_233
*1036 FILLER_32_245
*1037 FILLER_32_251
*1038 FILLER_32_253
*1039 FILLER_32_265
*1040 FILLER_32_27
*1041 FILLER_32_277
*1042 FILLER_32_289
*1043 FILLER_32_29
*1044 FILLER_32_297
*1045 FILLER_32_3
*1046 FILLER_32_41
*1047 FILLER_32_53
*1048 FILLER_32_65
*1049 FILLER_32_77
*1050 FILLER_32_83
*1051 FILLER_32_85
*1052 FILLER_32_97
*1053 FILLER_33_105
*1054 FILLER_33_111
*1055 FILLER_33_113
*1056 FILLER_33_125
*1057 FILLER_33_137
*1058 FILLER_33_149
*1059 FILLER_33_161
*1060 FILLER_33_167
*1061 FILLER_33_169
*1062 FILLER_33_181
*1063 FILLER_33_193
*1064 FILLER_33_20
*1065 FILLER_33_205
*1066 FILLER_33_217
*1067 FILLER_33_223
*1068 FILLER_33_225
*1069 FILLER_33_237
*1070 FILLER_33_249
*1071 FILLER_33_261
*1072 FILLER_33_273
*1073 FILLER_33_279
*1074 FILLER_33_281
*1075 FILLER_33_293
*1076 FILLER_33_3
*1077 FILLER_33_32
*1078 FILLER_33_44
*1079 FILLER_33_57
*1080 FILLER_33_69
*1081 FILLER_33_8
*1082 FILLER_33_81
*1083 FILLER_33_93
*1084 FILLER_34_109
*1085 FILLER_34_121
*1086 FILLER_34_133
*1087 FILLER_34_139
*1088 FILLER_34_141
*1089 FILLER_34_15
*1090 FILLER_34_153
*1091 FILLER_34_165
*1092 FILLER_34_177
*1093 FILLER_34_189
*1094 FILLER_34_195
*1095 FILLER_34_197
*1096 FILLER_34_209
*1097 FILLER_34_221
*1098 FILLER_34_233
*1099 FILLER_34_245
*1100 FILLER_34_251
*1101 FILLER_34_253
*1102 FILLER_34_265
*1103 FILLER_34_27
*1104 FILLER_34_277
*1105 FILLER_34_289
*1106 FILLER_34_29
*1107 FILLER_34_297
*1108 FILLER_34_3
*1109 FILLER_34_41
*1110 FILLER_34_53
*1111 FILLER_34_65
*1112 FILLER_34_77
*1113 FILLER_34_83
*1114 FILLER_34_85
*1115 FILLER_34_97
*1116 FILLER_35_105
*1117 FILLER_35_111
*1118 FILLER_35_113
*1119 FILLER_35_125
*1120 FILLER_35_137
*1121 FILLER_35_149
*1122 FILLER_35_15
*1123 FILLER_35_161
*1124 FILLER_35_167
*1125 FILLER_35_169
*1126 FILLER_35_181
*1127 FILLER_35_193
*1128 FILLER_35_205
*1129 FILLER_35_217
*1130 FILLER_35_223
*1131 FILLER_35_225
*1132 FILLER_35_237
*1133 FILLER_35_249
*1134 FILLER_35_261
*1135 FILLER_35_27
*1136 FILLER_35_273
*1137 FILLER_35_279
*1138 FILLER_35_281
*1139 FILLER_35_293
*1140 FILLER_35_3
*1141 FILLER_35_39
*1142 FILLER_35_51
*1143 FILLER_35_55
*1144 FILLER_35_57
*1145 FILLER_35_69
*1146 FILLER_35_81
*1147 FILLER_35_93
*1148 FILLER_36_109
*1149 FILLER_36_121
*1150 FILLER_36_133
*1151 FILLER_36_139
*1152 FILLER_36_141
*1153 FILLER_36_15
*1154 FILLER_36_153
*1155 FILLER_36_165
*1156 FILLER_36_177
*1157 FILLER_36_189
*1158 FILLER_36_195
*1159 FILLER_36_197
*1160 FILLER_36_209
*1161 FILLER_36_221
*1162 FILLER_36_233
*1163 FILLER_36_245
*1164 FILLER_36_251
*1165 FILLER_36_253
*1166 FILLER_36_265
*1167 FILLER_36_27
*1168 FILLER_36_277
*1169 FILLER_36_289
*1170 FILLER_36_29
*1171 FILLER_36_297
*1172 FILLER_36_3
*1173 FILLER_36_41
*1174 FILLER_36_53
*1175 FILLER_36_65
*1176 FILLER_36_77
*1177 FILLER_36_83
*1178 FILLER_36_85
*1179 FILLER_36_97
*1180 FILLER_37_105
*1181 FILLER_37_111
*1182 FILLER_37_113
*1183 FILLER_37_125
*1184 FILLER_37_137
*1185 FILLER_37_149
*1186 FILLER_37_15
*1187 FILLER_37_161
*1188 FILLER_37_167
*1189 FILLER_37_169
*1190 FILLER_37_181
*1191 FILLER_37_193
*1192 FILLER_37_205
*1193 FILLER_37_217
*1194 FILLER_37_223
*1195 FILLER_37_225
*1196 FILLER_37_237
*1197 FILLER_37_249
*1198 FILLER_37_261
*1199 FILLER_37_27
*1200 FILLER_37_273
*1201 FILLER_37_279
*1202 FILLER_37_281
*1203 FILLER_37_293
*1204 FILLER_37_3
*1205 FILLER_37_39
*1206 FILLER_37_51
*1207 FILLER_37_55
*1208 FILLER_37_57
*1209 FILLER_37_69
*1210 FILLER_37_81
*1211 FILLER_37_93
*1212 FILLER_38_109
*1213 FILLER_38_121
*1214 FILLER_38_133
*1215 FILLER_38_139
*1216 FILLER_38_141
*1217 FILLER_38_15
*1218 FILLER_38_153
*1219 FILLER_38_165
*1220 FILLER_38_177
*1221 FILLER_38_189
*1222 FILLER_38_195
*1223 FILLER_38_197
*1224 FILLER_38_209
*1225 FILLER_38_221
*1226 FILLER_38_233
*1227 FILLER_38_245
*1228 FILLER_38_251
*1229 FILLER_38_253
*1230 FILLER_38_265
*1231 FILLER_38_27
*1232 FILLER_38_277
*1233 FILLER_38_289
*1234 FILLER_38_29
*1235 FILLER_38_297
*1236 FILLER_38_3
*1237 FILLER_38_41
*1238 FILLER_38_53
*1239 FILLER_38_65
*1240 FILLER_38_77
*1241 FILLER_38_83
*1242 FILLER_38_85
*1243 FILLER_38_97
*1244 FILLER_39_105
*1245 FILLER_39_111
*1246 FILLER_39_113
*1247 FILLER_39_125
*1248 FILLER_39_137
*1249 FILLER_39_149
*1250 FILLER_39_161
*1251 FILLER_39_167
*1252 FILLER_39_169
*1253 FILLER_39_18
*1254 FILLER_39_181
*1255 FILLER_39_193
*1256 FILLER_39_205
*1257 FILLER_39_217
*1258 FILLER_39_223
*1259 FILLER_39_225
*1260 FILLER_39_237
*1261 FILLER_39_249
*1262 FILLER_39_261
*1263 FILLER_39_273
*1264 FILLER_39_279
*1265 FILLER_39_281
*1266 FILLER_39_293
*1267 FILLER_39_30
*1268 FILLER_39_42
*1269 FILLER_39_54
*1270 FILLER_39_57
*1271 FILLER_39_6
*1272 FILLER_39_69
*1273 FILLER_39_81
*1274 FILLER_39_93
*1275 FILLER_3_101
*1276 FILLER_3_108
*1277 FILLER_3_116
*1278 FILLER_3_128
*1279 FILLER_3_13
*1280 FILLER_3_140
*1281 FILLER_3_152
*1282 FILLER_3_164
*1283 FILLER_3_169
*1284 FILLER_3_17
*1285 FILLER_3_181
*1286 FILLER_3_193
*1287 FILLER_3_205
*1288 FILLER_3_217
*1289 FILLER_3_223
*1290 FILLER_3_225
*1291 FILLER_3_237
*1292 FILLER_3_249
*1293 FILLER_3_26
*1294 FILLER_3_261
*1295 FILLER_3_273
*1296 FILLER_3_279
*1297 FILLER_3_281
*1298 FILLER_3_293
*1299 FILLER_3_3
*1300 FILLER_3_32
*1301 FILLER_3_49
*1302 FILLER_3_55
*1303 FILLER_3_57
*1304 FILLER_3_7
*1305 FILLER_3_71
*1306 FILLER_3_87
*1307 FILLER_40_109
*1308 FILLER_40_121
*1309 FILLER_40_133
*1310 FILLER_40_139
*1311 FILLER_40_141
*1312 FILLER_40_15
*1313 FILLER_40_153
*1314 FILLER_40_165
*1315 FILLER_40_177
*1316 FILLER_40_189
*1317 FILLER_40_195
*1318 FILLER_40_197
*1319 FILLER_40_209
*1320 FILLER_40_221
*1321 FILLER_40_233
*1322 FILLER_40_245
*1323 FILLER_40_251
*1324 FILLER_40_253
*1325 FILLER_40_265
*1326 FILLER_40_27
*1327 FILLER_40_277
*1328 FILLER_40_289
*1329 FILLER_40_29
*1330 FILLER_40_297
*1331 FILLER_40_3
*1332 FILLER_40_41
*1333 FILLER_40_53
*1334 FILLER_40_65
*1335 FILLER_40_77
*1336 FILLER_40_83
*1337 FILLER_40_85
*1338 FILLER_40_97
*1339 FILLER_41_105
*1340 FILLER_41_111
*1341 FILLER_41_113
*1342 FILLER_41_125
*1343 FILLER_41_137
*1344 FILLER_41_149
*1345 FILLER_41_15
*1346 FILLER_41_161
*1347 FILLER_41_167
*1348 FILLER_41_169
*1349 FILLER_41_181
*1350 FILLER_41_193
*1351 FILLER_41_205
*1352 FILLER_41_217
*1353 FILLER_41_223
*1354 FILLER_41_225
*1355 FILLER_41_237
*1356 FILLER_41_249
*1357 FILLER_41_261
*1358 FILLER_41_27
*1359 FILLER_41_273
*1360 FILLER_41_279
*1361 FILLER_41_281
*1362 FILLER_41_293
*1363 FILLER_41_3
*1364 FILLER_41_39
*1365 FILLER_41_51
*1366 FILLER_41_55
*1367 FILLER_41_57
*1368 FILLER_41_69
*1369 FILLER_41_81
*1370 FILLER_41_93
*1371 FILLER_42_109
*1372 FILLER_42_121
*1373 FILLER_42_133
*1374 FILLER_42_139
*1375 FILLER_42_141
*1376 FILLER_42_153
*1377 FILLER_42_165
*1378 FILLER_42_177
*1379 FILLER_42_18
*1380 FILLER_42_189
*1381 FILLER_42_195
*1382 FILLER_42_197
*1383 FILLER_42_209
*1384 FILLER_42_221
*1385 FILLER_42_233
*1386 FILLER_42_245
*1387 FILLER_42_251
*1388 FILLER_42_253
*1389 FILLER_42_26
*1390 FILLER_42_265
*1391 FILLER_42_277
*1392 FILLER_42_289
*1393 FILLER_42_29
*1394 FILLER_42_297
*1395 FILLER_42_41
*1396 FILLER_42_53
*1397 FILLER_42_6
*1398 FILLER_42_65
*1399 FILLER_42_77
*1400 FILLER_42_83
*1401 FILLER_42_85
*1402 FILLER_42_97
*1403 FILLER_43_105
*1404 FILLER_43_111
*1405 FILLER_43_113
*1406 FILLER_43_125
*1407 FILLER_43_137
*1408 FILLER_43_149
*1409 FILLER_43_15
*1410 FILLER_43_161
*1411 FILLER_43_167
*1412 FILLER_43_169
*1413 FILLER_43_181
*1414 FILLER_43_193
*1415 FILLER_43_205
*1416 FILLER_43_217
*1417 FILLER_43_223
*1418 FILLER_43_225
*1419 FILLER_43_237
*1420 FILLER_43_249
*1421 FILLER_43_261
*1422 FILLER_43_27
*1423 FILLER_43_273
*1424 FILLER_43_279
*1425 FILLER_43_281
*1426 FILLER_43_293
*1427 FILLER_43_3
*1428 FILLER_43_39
*1429 FILLER_43_51
*1430 FILLER_43_55
*1431 FILLER_43_57
*1432 FILLER_43_69
*1433 FILLER_43_81
*1434 FILLER_43_93
*1435 FILLER_44_109
*1436 FILLER_44_121
*1437 FILLER_44_133
*1438 FILLER_44_139
*1439 FILLER_44_141
*1440 FILLER_44_15
*1441 FILLER_44_153
*1442 FILLER_44_165
*1443 FILLER_44_177
*1444 FILLER_44_189
*1445 FILLER_44_195
*1446 FILLER_44_197
*1447 FILLER_44_209
*1448 FILLER_44_221
*1449 FILLER_44_233
*1450 FILLER_44_245
*1451 FILLER_44_251
*1452 FILLER_44_253
*1453 FILLER_44_265
*1454 FILLER_44_27
*1455 FILLER_44_277
*1456 FILLER_44_289
*1457 FILLER_44_29
*1458 FILLER_44_297
*1459 FILLER_44_3
*1460 FILLER_44_41
*1461 FILLER_44_53
*1462 FILLER_44_65
*1463 FILLER_44_77
*1464 FILLER_44_83
*1465 FILLER_44_85
*1466 FILLER_44_97
*1467 FILLER_45_105
*1468 FILLER_45_111
*1469 FILLER_45_113
*1470 FILLER_45_125
*1471 FILLER_45_137
*1472 FILLER_45_149
*1473 FILLER_45_15
*1474 FILLER_45_161
*1475 FILLER_45_167
*1476 FILLER_45_169
*1477 FILLER_45_181
*1478 FILLER_45_193
*1479 FILLER_45_205
*1480 FILLER_45_217
*1481 FILLER_45_223
*1482 FILLER_45_225
*1483 FILLER_45_237
*1484 FILLER_45_249
*1485 FILLER_45_261
*1486 FILLER_45_27
*1487 FILLER_45_273
*1488 FILLER_45_279
*1489 FILLER_45_281
*1490 FILLER_45_293
*1491 FILLER_45_3
*1492 FILLER_45_39
*1493 FILLER_45_51
*1494 FILLER_45_55
*1495 FILLER_45_57
*1496 FILLER_45_69
*1497 FILLER_45_81
*1498 FILLER_45_93
*1499 FILLER_46_109
*1500 FILLER_46_121
*1501 FILLER_46_133
*1502 FILLER_46_139
*1503 FILLER_46_141
*1504 FILLER_46_153
*1505 FILLER_46_165
*1506 FILLER_46_177
*1507 FILLER_46_18
*1508 FILLER_46_189
*1509 FILLER_46_195
*1510 FILLER_46_197
*1511 FILLER_46_209
*1512 FILLER_46_221
*1513 FILLER_46_233
*1514 FILLER_46_245
*1515 FILLER_46_251
*1516 FILLER_46_253
*1517 FILLER_46_26
*1518 FILLER_46_265
*1519 FILLER_46_277
*1520 FILLER_46_289
*1521 FILLER_46_29
*1522 FILLER_46_297
*1523 FILLER_46_41
*1524 FILLER_46_53
*1525 FILLER_46_6
*1526 FILLER_46_65
*1527 FILLER_46_77
*1528 FILLER_46_83
*1529 FILLER_46_85
*1530 FILLER_46_97
*1531 FILLER_47_105
*1532 FILLER_47_111
*1533 FILLER_47_113
*1534 FILLER_47_125
*1535 FILLER_47_137
*1536 FILLER_47_149
*1537 FILLER_47_15
*1538 FILLER_47_161
*1539 FILLER_47_167
*1540 FILLER_47_169
*1541 FILLER_47_181
*1542 FILLER_47_193
*1543 FILLER_47_205
*1544 FILLER_47_217
*1545 FILLER_47_223
*1546 FILLER_47_225
*1547 FILLER_47_237
*1548 FILLER_47_249
*1549 FILLER_47_261
*1550 FILLER_47_27
*1551 FILLER_47_273
*1552 FILLER_47_279
*1553 FILLER_47_281
*1554 FILLER_47_293
*1555 FILLER_47_3
*1556 FILLER_47_39
*1557 FILLER_47_51
*1558 FILLER_47_55
*1559 FILLER_47_57
*1560 FILLER_47_69
*1561 FILLER_47_81
*1562 FILLER_47_93
*1563 FILLER_48_109
*1564 FILLER_48_121
*1565 FILLER_48_133
*1566 FILLER_48_139
*1567 FILLER_48_141
*1568 FILLER_48_15
*1569 FILLER_48_153
*1570 FILLER_48_165
*1571 FILLER_48_177
*1572 FILLER_48_189
*1573 FILLER_48_195
*1574 FILLER_48_197
*1575 FILLER_48_209
*1576 FILLER_48_221
*1577 FILLER_48_233
*1578 FILLER_48_245
*1579 FILLER_48_251
*1580 FILLER_48_253
*1581 FILLER_48_265
*1582 FILLER_48_27
*1583 FILLER_48_277
*1584 FILLER_48_289
*1585 FILLER_48_29
*1586 FILLER_48_297
*1587 FILLER_48_3
*1588 FILLER_48_41
*1589 FILLER_48_53
*1590 FILLER_48_65
*1591 FILLER_48_77
*1592 FILLER_48_83
*1593 FILLER_48_85
*1594 FILLER_48_97
*1595 FILLER_49_105
*1596 FILLER_49_111
*1597 FILLER_49_113
*1598 FILLER_49_125
*1599 FILLER_49_137
*1600 FILLER_49_149
*1601 FILLER_49_15
*1602 FILLER_49_161
*1603 FILLER_49_167
*1604 FILLER_49_169
*1605 FILLER_49_181
*1606 FILLER_49_193
*1607 FILLER_49_205
*1608 FILLER_49_217
*1609 FILLER_49_223
*1610 FILLER_49_225
*1611 FILLER_49_237
*1612 FILLER_49_249
*1613 FILLER_49_261
*1614 FILLER_49_27
*1615 FILLER_49_273
*1616 FILLER_49_279
*1617 FILLER_49_281
*1618 FILLER_49_293
*1619 FILLER_49_3
*1620 FILLER_49_39
*1621 FILLER_49_51
*1622 FILLER_49_55
*1623 FILLER_49_57
*1624 FILLER_49_69
*1625 FILLER_49_81
*1626 FILLER_49_93
*1627 FILLER_4_104
*1628 FILLER_4_111
*1629 FILLER_4_123
*1630 FILLER_4_135
*1631 FILLER_4_139
*1632 FILLER_4_141
*1633 FILLER_4_153
*1634 FILLER_4_165
*1635 FILLER_4_177
*1636 FILLER_4_189
*1637 FILLER_4_19
*1638 FILLER_4_195
*1639 FILLER_4_197
*1640 FILLER_4_209
*1641 FILLER_4_221
*1642 FILLER_4_233
*1643 FILLER_4_245
*1644 FILLER_4_251
*1645 FILLER_4_253
*1646 FILLER_4_265
*1647 FILLER_4_27
*1648 FILLER_4_277
*1649 FILLER_4_289