*SPEF "ieee 1481-1999"
*DESIGN "migcorre_pwm"
*DATE "11:11:11 Fri 11 11, 1111"
*VENDOR "OpenRCX"
*PROGRAM "Parallel Extraction"
*VERSION "1.0"
*DESIGN_FLOW "NAME_SCOPE LOCAL" "PIN_CAP NONE"
*DIVIDER /
*DELIMITER :
*BUS_DELIMITER []
*T_UNIT 1 NS
*C_UNIT 1 PF
*R_UNIT 1 OHM
*L_UNIT 1 HENRY

*NAME_MAP
*1 io_in[0]
*2 io_in[1]
*3 io_in[2]
*4 io_in[3]
*5 io_in[4]
*6 io_in[5]
*7 io_in[6]
*8 io_in[7]
*9 io_out[0]
*10 io_out[1]
*11 io_out[2]
*12 io_out[3]
*13 net5
*14 net6
*15 net7
*16 net8
*19 _000_
*20 _001_
*21 _002_
*22 _003_
*23 _004_
*24 _005_
*25 _006_
*26 _007_
*27 _008_
*28 _009_
*29 _010_
*30 _011_
*31 _012_
*32 _013_
*33 _014_
*34 _015_
*35 _016_
*36 _017_
*37 _018_
*38 _019_
*39 _020_
*40 _021_
*41 _022_
*42 _023_
*43 _024_
*44 _025_
*45 _026_
*46 _027_
*47 _028_
*48 _029_
*49 _030_
*50 _031_
*51 _032_
*52 _033_
*53 _034_
*54 _035_
*55 _036_
*56 _037_
*57 _038_
*58 _039_
*59 _040_
*60 _041_
*61 _042_
*62 _043_
*63 _044_
*64 _045_
*65 _046_
*66 _047_
*67 _048_
*68 _049_
*69 _050_
*70 _051_
*71 _052_
*72 _053_
*73 _054_
*74 _055_
*75 _056_
*76 _057_
*77 _058_
*78 _059_
*79 _060_
*80 _061_
*81 _062_
*82 _063_
*83 _064_
*84 _065_
*85 _066_
*86 _067_
*87 _068_
*88 _069_
*89 _070_
*90 _071_
*91 _072_
*92 _073_
*93 _074_
*94 _075_
*95 _076_
*96 _077_
*97 _078_
*98 _079_
*99 _080_
*100 _081_
*101 _082_
*102 _083_
*103 _084_
*104 _085_
*105 _086_
*106 _087_
*107 _088_
*108 _089_
*109 _090_
*110 _091_
*111 _092_
*112 _093_
*113 _094_
*114 _095_
*115 _096_
*116 _097_
*117 _098_
*118 _099_
*119 _100_
*120 _101_
*121 _102_
*122 _103_
*123 _104_
*124 _105_
*125 _106_
*126 _107_
*127 _108_
*128 _109_
*129 _110_
*130 _111_
*131 _112_
*132 _113_
*133 _114_
*134 _115_
*135 _116_
*136 _117_
*137 _118_
*138 _119_
*139 _120_
*140 _121_
*141 _122_
*142 _123_
*143 _124_
*144 _125_
*145 _126_
*146 _127_
*147 _128_
*148 _129_
*149 _130_
*150 _131_
*151 _132_
*152 _133_
*153 _134_
*154 _135_
*155 _136_
*156 _137_
*157 _138_
*158 clknet_0_io_in[0]
*159 clknet_2_0__leaf_io_in[0]
*160 clknet_2_1__leaf_io_in[0]
*161 clknet_2_2__leaf_io_in[0]
*162 clknet_2_3__leaf_io_in[0]
*163 decrease_debuncer\.DFF1
*164 decrease_debuncer\.DFF2
*165 decrease_debuncer\.debounced_signal0
*166 decrease_debuncer\.debounced_signal1
*167 decrease_debuncer\.q_reg\[0\]
*168 decrease_debuncer\.q_reg\[1\]
*169 decrease_debuncer\.q_reg\[2\]
*170 decrease_debuncer\.q_reg\[3\]
*171 decrease_debuncer\.q_reg\[4\]
*172 decrease_debuncer\.q_reg\[5\]
*173 decrease_debuncer\.q_reg\[6\]
*174 decrease_debuncer\.q_reg\[7\]
*175 decrease_debuncer\.signal_in
*176 increase_debuncer\.DFF1
*177 increase_debuncer\.DFF2
*178 increase_debuncer\.debounced_signal0
*179 increase_debuncer\.debounced_signal1
*180 increase_debuncer\.q_reg\[0\]
*181 increase_debuncer\.q_reg\[1\]
*182 increase_debuncer\.q_reg\[2\]
*183 increase_debuncer\.q_reg\[3\]
*184 increase_debuncer\.q_reg\[4\]
*185 increase_debuncer\.q_reg\[5\]
*186 increase_debuncer\.q_reg\[6\]
*187 increase_debuncer\.q_reg\[7\]
*188 increase_debuncer\.signal_in
*189 net1
*190 net10
*191 net11
*192 net12
*193 net2
*194 net3
*195 net4
*196 net9
*197 pwm_dc\.counter_duty\[0\]
*198 pwm_dc\.counter_duty\[1\]
*199 pwm_dc\.counter_duty\[2\]
*200 pwm_dc\.counter_duty\[3\]
*201 pwm_dc\.pwm_duty\[0\]
*202 pwm_dc\.pwm_duty\[1\]
*203 pwm_dc\.pwm_duty\[2\]
*204 pwm_dc\.pwm_duty\[3\]
*205 pwm_dc\.pwm_out
*206 synchronizer_decrease_duty\.sync_reg\[1\]
*207 synchronizer_increase_duty\.sync_reg\[1\]
*208 synchronizer_sisable_debouncer\.sync_out
*209 synchronizer_sisable_debouncer\.sync_reg\[1\]
*210 ANTENNA_0
*211 ANTENNA_1
*212 ANTENNA_2
*213 FILLER_0_101
*214 FILLER_0_108
*215 FILLER_0_120
*216 FILLER_0_132
*217 FILLER_0_141
*218 FILLER_0_153
*219 FILLER_0_165
*220 FILLER_0_169
*221 FILLER_0_181
*222 FILLER_0_19
*223 FILLER_0_193
*224 FILLER_0_197
*225 FILLER_0_209
*226 FILLER_0_221
*227 FILLER_0_225
*228 FILLER_0_237
*229 FILLER_0_249
*230 FILLER_0_253
*231 FILLER_0_265
*232 FILLER_0_27
*233 FILLER_0_277
*234 FILLER_0_281
*235 FILLER_0_293
*236 FILLER_0_45
*237 FILLER_0_53
*238 FILLER_0_73
*239 FILLER_0_80
*240 FILLER_10_102
*241 FILLER_10_114
*242 FILLER_10_126
*243 FILLER_10_138
*244 FILLER_10_141
*245 FILLER_10_153
*246 FILLER_10_165
*247 FILLER_10_177
*248 FILLER_10_189
*249 FILLER_10_19
*250 FILLER_10_195
*251 FILLER_10_197
*252 FILLER_10_209
*253 FILLER_10_221
*254 FILLER_10_233
*255 FILLER_10_245
*256 FILLER_10_251
*257 FILLER_10_253
*258 FILLER_10_265
*259 FILLER_10_27
*260 FILLER_10_277
*261 FILLER_10_289
*262 FILLER_10_297
*263 FILLER_10_45
*264 FILLER_10_49
*265 FILLER_10_66
*266 FILLER_10_80
*267 FILLER_10_85
*268 FILLER_11_101
*269 FILLER_11_108
*270 FILLER_11_113
*271 FILLER_11_125
*272 FILLER_11_131
*273 FILLER_11_135
*274 FILLER_11_147
*275 FILLER_11_159
*276 FILLER_11_167
*277 FILLER_11_169
*278 FILLER_11_181
*279 FILLER_11_193
*280 FILLER_11_205
*281 FILLER_11_217
*282 FILLER_11_223
*283 FILLER_11_225
*284 FILLER_11_237
*285 FILLER_11_249
*286 FILLER_11_261
*287 FILLER_11_273
*288 FILLER_11_279
*289 FILLER_11_281
*290 FILLER_11_293
*291 FILLER_11_30
*292 FILLER_11_42
*293 FILLER_11_54
*294 FILLER_11_6
*295 FILLER_11_73
*296 FILLER_11_87
*297 FILLER_12_110
*298 FILLER_12_114
*299 FILLER_12_122
*300 FILLER_12_134
*301 FILLER_12_141
*302 FILLER_12_153
*303 FILLER_12_165
*304 FILLER_12_177
*305 FILLER_12_189
*306 FILLER_12_195
*307 FILLER_12_197
*308 FILLER_12_209
*309 FILLER_12_221
*310 FILLER_12_233
*311 FILLER_12_24
*312 FILLER_12_245
*313 FILLER_12_251
*314 FILLER_12_253
*315 FILLER_12_265
*316 FILLER_12_277
*317 FILLER_12_289
*318 FILLER_12_297
*319 FILLER_12_3
*320 FILLER_12_45
*321 FILLER_12_49
*322 FILLER_12_66
*323 FILLER_12_74
*324 FILLER_12_80
*325 FILLER_12_91
*326 FILLER_12_98
*327 FILLER_13_104
*328 FILLER_13_113
*329 FILLER_13_121
*330 FILLER_13_133
*331 FILLER_13_145
*332 FILLER_13_157
*333 FILLER_13_165
*334 FILLER_13_169
*335 FILLER_13_181
*336 FILLER_13_19
*337 FILLER_13_193
*338 FILLER_13_205
*339 FILLER_13_217
*340 FILLER_13_223
*341 FILLER_13_225
*342 FILLER_13_237
*343 FILLER_13_249
*344 FILLER_13_261
*345 FILLER_13_273
*346 FILLER_13_279
*347 FILLER_13_281
*348 FILLER_13_293
*349 FILLER_13_43
*350 FILLER_13_55
*351 FILLER_13_73
*352 FILLER_13_85
*353 FILLER_13_92
*354 FILLER_14_100
*355 FILLER_14_105
*356 FILLER_14_117
*357 FILLER_14_129
*358 FILLER_14_137
*359 FILLER_14_141
*360 FILLER_14_153
*361 FILLER_14_165
*362 FILLER_14_177
*363 FILLER_14_189
*364 FILLER_14_195
*365 FILLER_14_197
*366 FILLER_14_209
*367 FILLER_14_221
*368 FILLER_14_233
*369 FILLER_14_24
*370 FILLER_14_245
*371 FILLER_14_251
*372 FILLER_14_253
*373 FILLER_14_265
*374 FILLER_14_277
*375 FILLER_14_289
*376 FILLER_14_29
*377 FILLER_14_297
*378 FILLER_14_41
*379 FILLER_14_6
*380 FILLER_14_63
*381 FILLER_14_71
*382 FILLER_14_77
*383 FILLER_14_83
*384 FILLER_14_88
*385 FILLER_15_104
*386 FILLER_15_113
*387 FILLER_15_125
*388 FILLER_15_137
*389 FILLER_15_149
*390 FILLER_15_161
*391 FILLER_15_167
*392 FILLER_15_174
*393 FILLER_15_186
*394 FILLER_15_198
*395 FILLER_15_210
*396 FILLER_15_222
*397 FILLER_15_225
*398 FILLER_15_237
*399 FILLER_15_249
*400 FILLER_15_261
*401 FILLER_15_27
*402 FILLER_15_273
*403 FILLER_15_279
*404 FILLER_15_281
*405 FILLER_15_293
*406 FILLER_15_3
*407 FILLER_15_49
*408 FILLER_15_55
*409 FILLER_15_73
*410 FILLER_15_80
*411 FILLER_15_9
*412 FILLER_15_92
*413 FILLER_16_100
*414 FILLER_16_112
*415 FILLER_16_124
*416 FILLER_16_136
*417 FILLER_16_141
*418 FILLER_16_153
*419 FILLER_16_165
*420 FILLER_16_177
*421 FILLER_16_189
*422 FILLER_16_19
*423 FILLER_16_195
*424 FILLER_16_197
*425 FILLER_16_209
*426 FILLER_16_221
*427 FILLER_16_233
*428 FILLER_16_245
*429 FILLER_16_251
*430 FILLER_16_253
*431 FILLER_16_265
*432 FILLER_16_27
*433 FILLER_16_277
*434 FILLER_16_289
*435 FILLER_16_297
*436 FILLER_16_45
*437 FILLER_16_57
*438 FILLER_16_69
*439 FILLER_16_73
*440 FILLER_16_80
*441 FILLER_16_88
*442 FILLER_17_109
*443 FILLER_17_113
*444 FILLER_17_124
*445 FILLER_17_136
*446 FILLER_17_148
*447 FILLER_17_15
*448 FILLER_17_160
*449 FILLER_17_169
*450 FILLER_17_181
*451 FILLER_17_193
*452 FILLER_17_205
*453 FILLER_17_217
*454 FILLER_17_223
*455 FILLER_17_225
*456 FILLER_17_237
*457 FILLER_17_249
*458 FILLER_17_261
*459 FILLER_17_27
*460 FILLER_17_273
*461 FILLER_17_279
*462 FILLER_17_281
*463 FILLER_17_293
*464 FILLER_17_3
*465 FILLER_17_39
*466 FILLER_17_51
*467 FILLER_17_55
*468 FILLER_17_57
*469 FILLER_17_69
*470 FILLER_17_79
*471 FILLER_17_86
*472 FILLER_17_97
*473 FILLER_18_109
*474 FILLER_18_117
*475 FILLER_18_121
*476 FILLER_18_133
*477 FILLER_18_139
*478 FILLER_18_141
*479 FILLER_18_15
*480 FILLER_18_153
*481 FILLER_18_165
*482 FILLER_18_177
*483 FILLER_18_189
*484 FILLER_18_195
*485 FILLER_18_197
*486 FILLER_18_209
*487 FILLER_18_221
*488 FILLER_18_233
*489 FILLER_18_245
*490 FILLER_18_251
*491 FILLER_18_253
*492 FILLER_18_265
*493 FILLER_18_27
*494 FILLER_18_277
*495 FILLER_18_289
*496 FILLER_18_29
*497 FILLER_18_297
*498 FILLER_18_3
*499 FILLER_18_37
*500 FILLER_18_44
*501 FILLER_18_48
*502 FILLER_18_52
*503 FILLER_18_60
*504 FILLER_18_67
*505 FILLER_18_71
*506 FILLER_18_75
*507 FILLER_18_83
*508 FILLER_18_85
*509 FILLER_18_97
*510 FILLER_19_107
*511 FILLER_19_111
*512 FILLER_19_113
*513 FILLER_19_128
*514 FILLER_19_136
*515 FILLER_19_145
*516 FILLER_19_15
*517 FILLER_19_157
*518 FILLER_19_165
*519 FILLER_19_169
*520 FILLER_19_181
*521 FILLER_19_193
*522 FILLER_19_205
*523 FILLER_19_217
*524 FILLER_19_223
*525 FILLER_19_225
*526 FILLER_19_23
*527 FILLER_19_237
*528 FILLER_19_249
*529 FILLER_19_261
*530 FILLER_19_273
*531 FILLER_19_279
*532 FILLER_19_281
*533 FILLER_19_29
*534 FILLER_19_293
*535 FILLER_19_3
*536 FILLER_19_43
*537 FILLER_19_50
*538 FILLER_19_57
*539 FILLER_19_68
*540 FILLER_19_75
*541 FILLER_19_83
*542 FILLER_19_91
*543 FILLER_19_99
*544 FILLER_1_107
*545 FILLER_1_111
*546 FILLER_1_120
*547 FILLER_1_127
*548 FILLER_1_139
*549 FILLER_1_143
*550 FILLER_1_15
*551 FILLER_1_151
*552 FILLER_1_163
*553 FILLER_1_167
*554 FILLER_1_169
*555 FILLER_1_173
*556 FILLER_1_180
*557 FILLER_1_192
*558 FILLER_1_204
*559 FILLER_1_216
*560 FILLER_1_225
*561 FILLER_1_237
*562 FILLER_1_249
*563 FILLER_1_261
*564 FILLER_1_273
*565 FILLER_1_279
*566 FILLER_1_281
*567 FILLER_1_293
*568 FILLER_1_3
*569 FILLER_1_32
*570 FILLER_1_52
*571 FILLER_1_57
*572 FILLER_1_81
*573 FILLER_1_89
*574 FILLER_1_99
*575 FILLER_20_107
*576 FILLER_20_119
*577 FILLER_20_131
*578 FILLER_20_139
*579 FILLER_20_141
*580 FILLER_20_15
*581 FILLER_20_153
*582 FILLER_20_165
*583 FILLER_20_177
*584 FILLER_20_189
*585 FILLER_20_195
*586 FILLER_20_197
*587 FILLER_20_209
*588 FILLER_20_221
*589 FILLER_20_233
*590 FILLER_20_245
*591 FILLER_20_251
*592 FILLER_20_253
*593 FILLER_20_265
*594 FILLER_20_27
*595 FILLER_20_277
*596 FILLER_20_289
*597 FILLER_20_29
*598 FILLER_20_297
*599 FILLER_20_3
*600 FILLER_20_41
*601 FILLER_20_45
*602 FILLER_20_49
*603 FILLER_20_61
*604 FILLER_20_69
*605 FILLER_20_80
*606 FILLER_20_95
*607 FILLER_21_103
*608 FILLER_21_111
*609 FILLER_21_113
*610 FILLER_21_125
*611 FILLER_21_136
*612 FILLER_21_148
*613 FILLER_21_15
*614 FILLER_21_160
*615 FILLER_21_169
*616 FILLER_21_181
*617 FILLER_21_193
*618 FILLER_21_205
*619 FILLER_21_217
*620 FILLER_21_223
*621 FILLER_21_225
*622 FILLER_21_237
*623 FILLER_21_249
*624 FILLER_21_261
*625 FILLER_21_27
*626 FILLER_21_273
*627 FILLER_21_279
*628 FILLER_21_281
*629 FILLER_21_293
*630 FILLER_21_3
*631 FILLER_21_39
*632 FILLER_21_51
*633 FILLER_21_55
*634 FILLER_21_57
*635 FILLER_21_69
*636 FILLER_21_81
*637 FILLER_21_91
*638 FILLER_22_100
*639 FILLER_22_111
*640 FILLER_22_119
*641 FILLER_22_123
*642 FILLER_22_134
*643 FILLER_22_141
*644 FILLER_22_15
*645 FILLER_22_153
*646 FILLER_22_165
*647 FILLER_22_177
*648 FILLER_22_189
*649 FILLER_22_195
*650 FILLER_22_197
*651 FILLER_22_209
*652 FILLER_22_221
*653 FILLER_22_233
*654 FILLER_22_245
*655 FILLER_22_251
*656 FILLER_22_253
*657 FILLER_22_265
*658 FILLER_22_27
*659 FILLER_22_277
*660 FILLER_22_289
*661 FILLER_22_29
*662 FILLER_22_297
*663 FILLER_22_3
*664 FILLER_22_33
*665 FILLER_22_40
*666 FILLER_22_52
*667 FILLER_22_56
*668 FILLER_22_65
*669 FILLER_22_78
*670 FILLER_22_85
*671 FILLER_22_89
*672 FILLER_23_101
*673 FILLER_23_108
*674 FILLER_23_121
*675 FILLER_23_136
*676 FILLER_23_140
*677 FILLER_23_147
*678 FILLER_23_15
*679 FILLER_23_159
*680 FILLER_23_167
*681 FILLER_23_169
*682 FILLER_23_181
*683 FILLER_23_193
*684 FILLER_23_205
*685 FILLER_23_217
*686 FILLER_23_223
*687 FILLER_23_225
*688 FILLER_23_237
*689 FILLER_23_249
*690 FILLER_23_261
*691 FILLER_23_27
*692 FILLER_23_273
*693 FILLER_23_279
*694 FILLER_23_281
*695 FILLER_23_293
*696 FILLER_23_3
*697 FILLER_23_39
*698 FILLER_23_45
*699 FILLER_23_53
*700 FILLER_23_64
*701 FILLER_23_73
*702 FILLER_23_81
*703 FILLER_23_87
*704 FILLER_23_93
*705 FILLER_24_101
*706 FILLER_24_11
*707 FILLER_24_113
*708 FILLER_24_125
*709 FILLER_24_134
*710 FILLER_24_141
*711 FILLER_24_145
*712 FILLER_24_153
*713 FILLER_24_165
*714 FILLER_24_17
*715 FILLER_24_177
*716 FILLER_24_189
*717 FILLER_24_195
*718 FILLER_24_197
*719 FILLER_24_209
*720 FILLER_24_221
*721 FILLER_24_233
*722 FILLER_24_245
*723 FILLER_24_25
*724 FILLER_24_251
*725 FILLER_24_253
*726 FILLER_24_265
*727 FILLER_24_277
*728 FILLER_24_289
*729 FILLER_24_29
*730 FILLER_24_297
*731 FILLER_24_3
*732 FILLER_24_39
*733 FILLER_24_51
*734 FILLER_24_57
*735 FILLER_24_70
*736 FILLER_24_78
*737 FILLER_24_85
*738 FILLER_24_93
*739 FILLER_25_111
*740 FILLER_25_113
*741 FILLER_25_125
*742 FILLER_25_137
*743 FILLER_25_149
*744 FILLER_25_15
*745 FILLER_25_161
*746 FILLER_25_167
*747 FILLER_25_169
*748 FILLER_25_181
*749 FILLER_25_193
*750 FILLER_25_205
*751 FILLER_25_217
*752 FILLER_25_223
*753 FILLER_25_225
*754 FILLER_25_23
*755 FILLER_25_237
*756 FILLER_25_249
*757 FILLER_25_261
*758 FILLER_25_273
*759 FILLER_25_279
*760 FILLER_25_281
*761 FILLER_25_293
*762 FILLER_25_3
*763 FILLER_25_34
*764 FILLER_25_46
*765 FILLER_25_54
*766 FILLER_25_67
*767 FILLER_25_75
*768 FILLER_25_84
*769 FILLER_25_99
*770 FILLER_26_102
*771 FILLER_26_114
*772 FILLER_26_123
*773 FILLER_26_132
*774 FILLER_26_141
*775 FILLER_26_15
*776 FILLER_26_153
*777 FILLER_26_165
*778 FILLER_26_177
*779 FILLER_26_189
*780 FILLER_26_195
*781 FILLER_26_197
*782 FILLER_26_209
*783 FILLER_26_221
*784 FILLER_26_233
*785 FILLER_26_245
*786 FILLER_26_251
*787 FILLER_26_253
*788 FILLER_26_265
*789 FILLER_26_27
*790 FILLER_26_277
*791 FILLER_26_289
*792 FILLER_26_29
*793 FILLER_26_297
*794 FILLER_26_3
*795 FILLER_26_41
*796 FILLER_26_53
*797 FILLER_26_65
*798 FILLER_26_77
*799 FILLER_26_83
*800 FILLER_26_85
*801 FILLER_26_97
*802 FILLER_27_110
*803 FILLER_27_113
*804 FILLER_27_119
*805 FILLER_27_128
*806 FILLER_27_140
*807 FILLER_27_15
*808 FILLER_27_152
*809 FILLER_27_158
*810 FILLER_27_166
*811 FILLER_27_169
*812 FILLER_27_181
*813 FILLER_27_193
*814 FILLER_27_205
*815 FILLER_27_217
*816 FILLER_27_223
*817 FILLER_27_225
*818 FILLER_27_237
*819 FILLER_27_249
*820 FILLER_27_261
*821 FILLER_27_27
*822 FILLER_27_273
*823 FILLER_27_279
*824 FILLER_27_281
*825 FILLER_27_293
*826 FILLER_27_3
*827 FILLER_27_39
*828 FILLER_27_51
*829 FILLER_27_55
*830 FILLER_27_57
*831 FILLER_27_67
*832 FILLER_27_79
*833 FILLER_27_91
*834 FILLER_27_98
*835 FILLER_28_104
*836 FILLER_28_112
*837 FILLER_28_118
*838 FILLER_28_130
*839 FILLER_28_138
*840 FILLER_28_141
*841 FILLER_28_153
*842 FILLER_28_165
*843 FILLER_28_177
*844 FILLER_28_189
*845 FILLER_28_195
*846 FILLER_28_197
*847 FILLER_28_209
*848 FILLER_28_21
*849 FILLER_28_221
*850 FILLER_28_233
*851 FILLER_28_245
*852 FILLER_28_251
*853 FILLER_28_253
*854 FILLER_28_265
*855 FILLER_28_27
*856 FILLER_28_277
*857 FILLER_28_289
*858 FILLER_28_29
*859 FILLER_28_297
*860 FILLER_28_3
*861 FILLER_28_40
*862 FILLER_28_48
*863 FILLER_28_60
*864 FILLER_28_72
*865 FILLER_28_85
*866 FILLER_28_9
*867 FILLER_28_91
*868 FILLER_28_95
*869 FILLER_29_105
*870 FILLER_29_111
*871 FILLER_29_117
*872 FILLER_29_129
*873 FILLER_29_141
*874 FILLER_29_153
*875 FILLER_29_165
*876 FILLER_29_169
*877 FILLER_29_17
*878 FILLER_29_181
*879 FILLER_29_193
*880 FILLER_29_205
*881 FILLER_29_217
*882 FILLER_29_223
*883 FILLER_29_225
*884 FILLER_29_237
*885 FILLER_29_24
*886 FILLER_29_249
*887 FILLER_29_261
*888 FILLER_29_273
*889 FILLER_29_279
*890 FILLER_29_281
*891 FILLER_29_293
*892 FILLER_29_3
*893 FILLER_29_36
*894 FILLER_29_48
*895 FILLER_29_57
*896 FILLER_29_69
*897 FILLER_29_81
*898 FILLER_29_9
*899 FILLER_29_93
*900 FILLER_2_105
*901 FILLER_2_109
*902 FILLER_2_113
*903 FILLER_2_125
*904 FILLER_2_137
*905 FILLER_2_141
*906 FILLER_2_145
*907 FILLER_2_156
*908 FILLER_2_164
*909 FILLER_2_172
*910 FILLER_2_184
*911 FILLER_2_197
*912 FILLER_2_209
*913 FILLER_2_221
*914 FILLER_2_233
*915 FILLER_2_24
*916 FILLER_2_245
*917 FILLER_2_251
*918 FILLER_2_253
*919 FILLER_2_265
*920 FILLER_2_277
*921 FILLER_2_289
*922 FILLER_2_29
*923 FILLER_2_297
*924 FILLER_2_3
*925 FILLER_2_41
*926 FILLER_2_65
*927 FILLER_2_7
*928 FILLER_2_77
*929 FILLER_2_83
*930 FILLER_2_93
*931 FILLER_30_101
*932 FILLER_30_11
*933 FILLER_30_113
*934 FILLER_30_125
*935 FILLER_30_137
*936 FILLER_30_141
*937 FILLER_30_153
*938 FILLER_30_165
*939 FILLER_30_177
*940 FILLER_30_189
*941 FILLER_30_195
*942 FILLER_30_197
*943 FILLER_30_209
*944 FILLER_30_221
*945 FILLER_30_233
*946 FILLER_30_24
*947 FILLER_30_245
*948 FILLER_30_251
*949 FILLER_30_253
*950 FILLER_30_265
*951 FILLER_30_277
*952 FILLER_30_289
*953 FILLER_30_29
*954 FILLER_30_297
*955 FILLER_30_3
*956 FILLER_30_41
*957 FILLER_30_45
*958 FILLER_30_57
*959 FILLER_30_71
*960 FILLER_30_80
*961 FILLER_30_85
*962 FILLER_30_89
*963 FILLER_31_102
*964 FILLER_31_110
*965 FILLER_31_113
*966 FILLER_31_125
*967 FILLER_31_137
*968 FILLER_31_149
*969 FILLER_31_161
*970 FILLER_31_167
*971 FILLER_31_169
*972 FILLER_31_181
*973 FILLER_31_193
*974 FILLER_31_205
*975 FILLER_31_21
*976 FILLER_31_217
*977 FILLER_31_223
*978 FILLER_31_225
*979 FILLER_31_237
*980 FILLER_31_249
*981 FILLER_31_261
*982 FILLER_31_273
*983 FILLER_31_279
*984 FILLER_31_281
*985 FILLER_31_29
*986 FILLER_31_293
*987 FILLER_31_3
*988 FILLER_31_34
*989 FILLER_31_46
*990 FILLER_31_54
*991 FILLER_31_57
*992 FILLER_31_69
*993 FILLER_31_75
*994 FILLER_31_80
*995 FILLER_31_9
*996 FILLER_31_92
*997 FILLER_32_100
*998 FILLER_32_112
*999 FILLER_32_124
*1000 FILLER_32_136
*1001 FILLER_32_141
*1002 FILLER_32_15
*1003 FILLER_32_153
*1004 FILLER_32_165
*1005 FILLER_32_177
*1006 FILLER_32_189
*1007 FILLER_32_195
*1008 FILLER_32_197
*1009 FILLER_32_209
*1010 FILLER_32_221
*1011 FILLER_32_233
*1012 FILLER_32_245
*1013 FILLER_32_251
*1014 FILLER_32_253
*1015 FILLER_32_265
*1016 FILLER_32_27
*1017 FILLER_32_277
*1018 FILLER_32_289
*1019 FILLER_32_29
*1020 FILLER_32_297
*1021 FILLER_32_3
*1022 FILLER_32_41
*1023 FILLER_32_49
*1024 FILLER_32_56
*1025 FILLER_32_68
*1026 FILLER_32_76
*1027 FILLER_32_80
*1028 FILLER_32_85
*1029 FILLER_32_89
*1030 FILLER_33_102
*1031 FILLER_33_110
*1032 FILLER_33_113
*1033 FILLER_33_125
*1034 FILLER_33_137
*1035 FILLER_33_149
*1036 FILLER_33_15
*1037 FILLER_33_161
*1038 FILLER_33_167
*1039 FILLER_33_169
*1040 FILLER_33_181
*1041 FILLER_33_193
*1042 FILLER_33_205
*1043 FILLER_33_217
*1044 FILLER_33_223
*1045 FILLER_33_225
*1046 FILLER_33_237
*1047 FILLER_33_249
*1048 FILLER_33_261
*1049 FILLER_33_27
*1050 FILLER_33_273
*1051 FILLER_33_279
*1052 FILLER_33_281
*1053 FILLER_33_293
*1054 FILLER_33_3
*1055 FILLER_33_39
*1056 FILLER_33_51
*1057 FILLER_33_55
*1058 FILLER_33_57
*1059 FILLER_33_66
*1060 FILLER_33_78
*1061 FILLER_33_90
*1062 FILLER_34_100
*1063 FILLER_34_112
*1064 FILLER_34_124
*1065 FILLER_34_136
*1066 FILLER_34_141
*1067 FILLER_34_15
*1068 FILLER_34_153
*1069 FILLER_34_165
*1070 FILLER_34_177
*1071 FILLER_34_189
*1072 FILLER_34_195
*1073 FILLER_34_197
*1074 FILLER_34_209
*1075 FILLER_34_221
*1076 FILLER_34_233
*1077 FILLER_34_245
*1078 FILLER_34_251
*1079 FILLER_34_253
*1080 FILLER_34_265
*1081 FILLER_34_27
*1082 FILLER_34_277
*1083 FILLER_34_289
*1084 FILLER_34_29
*1085 FILLER_34_297
*1086 FILLER_34_3
*1087 FILLER_34_41
*1088 FILLER_34_53
*1089 FILLER_34_65
*1090 FILLER_34_77
*1091 FILLER_34_83
*1092 FILLER_34_88
*1093 FILLER_35_105
*1094 FILLER_35_111
*1095 FILLER_35_113
*1096 FILLER_35_125
*1097 FILLER_35_137
*1098 FILLER_35_149
*1099 FILLER_35_15
*1100 FILLER_35_161
*1101 FILLER_35_167
*1102 FILLER_35_169
*1103 FILLER_35_181
*1104 FILLER_35_193
*1105 FILLER_35_205
*1106 FILLER_35_217
*1107 FILLER_35_223
*1108 FILLER_35_225
*1109 FILLER_35_237
*1110 FILLER_35_249
*1111 FILLER_35_261
*1112 FILLER_35_27
*1113 FILLER_35_273
*1114 FILLER_35_279
*1115 FILLER_35_281
*1116 FILLER_35_293
*1117 FILLER_35_3
*1118 FILLER_35_39
*1119 FILLER_35_51
*1120 FILLER_35_55
*1121 FILLER_35_57
*1122 FILLER_35_69
*1123 FILLER_35_81
*1124 FILLER_35_93
*1125 FILLER_36_109
*1126 FILLER_36_121
*1127 FILLER_36_133
*1128 FILLER_36_139
*1129 FILLER_36_141
*1130 FILLER_36_15
*1131 FILLER_36_153
*1132 FILLER_36_165
*1133 FILLER_36_177
*1134 FILLER_36_189
*1135 FILLER_36_195
*1136 FILLER_36_197
*1137 FILLER_36_209
*1138 FILLER_36_221
*1139 FILLER_36_233
*1140 FILLER_36_245
*1141 FILLER_36_251
*1142 FILLER_36_253
*1143 FILLER_36_265
*1144 FILLER_36_27
*1145 FILLER_36_277
*1146 FILLER_36_289
*1147 FILLER_36_29
*1148 FILLER_36_297
*1149 FILLER_36_3
*1150 FILLER_36_41
*1151 FILLER_36_53
*1152 FILLER_36_65
*1153 FILLER_36_77
*1154 FILLER_36_83
*1155 FILLER_36_85
*1156 FILLER_36_97
*1157 FILLER_37_105
*1158 FILLER_37_111
*1159 FILLER_37_113
*1160 FILLER_37_125
*1161 FILLER_37_137
*1162 FILLER_37_149
*1163 FILLER_37_15
*1164 FILLER_37_161
*1165 FILLER_37_167
*1166 FILLER_37_169
*1167 FILLER_37_181
*1168 FILLER_37_193
*1169 FILLER_37_205
*1170 FILLER_37_217
*1171 FILLER_37_223
*1172 FILLER_37_225
*1173 FILLER_37_237
*1174 FILLER_37_249
*1175 FILLER_37_261
*1176 FILLER_37_27
*1177 FILLER_37_273
*1178 FILLER_37_279
*1179 FILLER_37_281
*1180 FILLER_37_293
*1181 FILLER_37_3
*1182 FILLER_37_39
*1183 FILLER_37_50
*1184 FILLER_37_57
*1185 FILLER_37_69
*1186 FILLER_37_81
*1187 FILLER_37_93
*1188 FILLER_38_109
*1189 FILLER_38_121
*1190 FILLER_38_133
*1191 FILLER_38_139
*1192 FILLER_38_141
*1193 FILLER_38_15
*1194 FILLER_38_153
*1195 FILLER_38_165
*1196 FILLER_38_177
*1197 FILLER_38_189
*1198 FILLER_38_195
*1199 FILLER_38_197
*1200 FILLER_38_209
*1201 FILLER_38_221
*1202 FILLER_38_233
*1203 FILLER_38_245
*1204 FILLER_38_251
*1205 FILLER_38_253
*1206 FILLER_38_265
*1207 FILLER_38_27
*1208 FILLER_38_277
*1209 FILLER_38_289
*1210 FILLER_38_29
*1211 FILLER_38_297
*1212 FILLER_38_3
*1213 FILLER_38_41
*1214 FILLER_38_53
*1215 FILLER_38_65
*1216 FILLER_38_77
*1217 FILLER_38_83
*1218 FILLER_38_85
*1219 FILLER_38_97
*1220 FILLER_39_105
*1221 FILLER_39_11
*1222 FILLER_39_111
*1223 FILLER_39_113
*1224 FILLER_39_125
*1225 FILLER_39_137
*1226 FILLER_39_149
*1227 FILLER_39_161
*1228 FILLER_39_167
*1229 FILLER_39_169
*1230 FILLER_39_181
*1231 FILLER_39_193
*1232 FILLER_39_205
*1233 FILLER_39_21
*1234 FILLER_39_217
*1235 FILLER_39_223
*1236 FILLER_39_225
*1237 FILLER_39_237
*1238 FILLER_39_249
*1239 FILLER_39_261
*1240 FILLER_39_273
*1241 FILLER_39_279
*1242 FILLER_39_281
*1243 FILLER_39_293
*1244 FILLER_39_3
*1245 FILLER_39_33
*1246 FILLER_39_45
*1247 FILLER_39_53
*1248 FILLER_39_57
*1249 FILLER_39_69
*1250 FILLER_39_81
*1251 FILLER_39_93
*1252 FILLER_3_102
*1253 FILLER_3_108
*1254 FILLER_3_113
*1255 FILLER_3_125
*1256 FILLER_3_133
*1257 FILLER_3_137
*1258 FILLER_3_145
*1259 FILLER_3_151
*1260 FILLER_3_163
*1261 FILLER_3_167
*1262 FILLER_3_169
*1263 FILLER_3_181
*1264 FILLER_3_193
*1265 FILLER_3_205
*1266 FILLER_3_217
*1267 FILLER_3_223
*1268 FILLER_3_225
*1269 FILLER_3_237
*1270 FILLER_3_249
*1271 FILLER_3_261
*1272 FILLER_3_27
*1273 FILLER_3_273
*1274 FILLER_3_279
*1275 FILLER_3_281
*1276 FILLER_3_293
*1277 FILLER_3_3
*1278 FILLER_3_47
*1279 FILLER_3_55
*1280 FILLER_3_65
*1281 FILLER_3_71
*1282 FILLER_3_78
*1283 FILLER_3_90
*1284 FILLER_40_109
*1285 FILLER_40_121
*1286 FILLER_40_133
*1287 FILLER_40_139
*1288 FILLER_40_141
*1289 FILLER_40_15
*1290 FILLER_40_153
*1291 FILLER_40_165
*1292 FILLER_40_177
*1293 FILLER_40_189
*1294 FILLER_40_195
*1295 FILLER_40_197
*1296 FILLER_40_209
*1297 FILLER_40_221
*1298 FILLER_40_233
*1299 FILLER_40_245
*1300 FILLER_40_251
*1301 FILLER_40_253
*1302 FILLER_40_265
*1303 FILLER_40_27
*1304 FILLER_40_277
*1305 FILLER_40_289
*1306 FILLER_40_29
*1307 FILLER_40_297
*1308 FILLER_40_3
*1309 FILLER_40_41
*1310 FILLER_40_53
*1311 FILLER_40_65
*1312 FILLER_40_77
*1313 FILLER_40_83
*1314 FILLER_40_85
*1315 FILLER_40_97
*1316 FILLER_41_105
*1317 FILLER_41_111
*1318 FILLER_41_113
*1319 FILLER_41_125
*1320 FILLER_41_137
*1321 FILLER_41_149
*1322 FILLER_41_15
*1323 FILLER_41_161
*1324 FILLER_41_167
*1325 FILLER_41_169
*1326 FILLER_41_181
*1327 FILLER_41_193
*1328 FILLER_41_205
*1329 FILLER_41_217
*1330 FILLER_41_223
*1331 FILLER_41_225
*1332 FILLER_41_237
*1333 FILLER_41_249
*1334 FILLER_41_261
*1335 FILLER_41_27
*1336 FILLER_41_273
*1337 FILLER_41_279
*1338 FILLER_41_281
*1339 FILLER_41_293
*1340 FILLER_41_3
*1341 FILLER_41_39
*1342 FILLER_41_51
*1343 FILLER_41_55
*1344 FILLER_41_57
*1345 FILLER_41_69
*1346 FILLER_41_81
*1347 FILLER_41_93
*1348 FILLER_42_109
*1349 FILLER_42_121
*1350 FILLER_42_133
*1351 FILLER_42_139
*1352 FILLER_42_141
*1353 FILLER_42_153
*1354 FILLER_42_165
*1355 FILLER_42_177
*1356 FILLER_42_189
*1357 FILLER_42_195
*1358 FILLER_42_197
*1359 FILLER_42_20
*1360 FILLER_42_209
*1361 FILLER_42_221
*1362 FILLER_42_233
*1363 FILLER_42_245
*1364 FILLER_42_251
*1365 FILLER_42_253
*1366 FILLER_42_265
*1367 FILLER_42_277
*1368 FILLER_42_289
*1369 FILLER_42_29
*1370 FILLER_42_297
*1371 FILLER_42_3
*1372 FILLER_42_41
*1373 FILLER_42_53
*1374 FILLER_42_65
*1375 FILLER_42_77
*1376 FILLER_42_8
*1377 FILLER_42_83
*1378 FILLER_42_85
*1379 FILLER_42_97
*1380 FILLER_43_105
*1381 FILLER_43_111
*1382 FILLER_43_113
*1383 FILLER_43_125
*1384 FILLER_43_137
*1385 FILLER_43_149
*1386 FILLER_43_15
*1387 FILLER_43_161
*1388 FILLER_43_167
*1389 FILLER_43_169
*1390 FILLER_43_181
*1391 FILLER_43_193
*1392 FILLER_43_205
*1393 FILLER_43_217
*1394 FILLER_43_223
*1395 FILLER_43_225
*1396 FILLER_43_237
*1397 FILLER_43_249
*1398 FILLER_43_261
*1399 FILLER_43_27
*1400 FILLER_43_273
*1401 FILLER_43_279
*1402 FILLER_43_281
*1403 FILLER_43_293
*1404 FILLER_43_3
*1405 FILLER_43_39
*1406 FILLER_43_51
*1407 FILLER_43_55
*1408 FILLER_43_57
*1409 FILLER_43_69
*1410 FILLER_43_81
*1411 FILLER_43_93
*1412 FILLER_44_109
*1413 FILLER_44_121
*1414 FILLER_44_133
*1415 FILLER_44_139
*1416 FILLER_44_141
*1417 FILLER_44_15
*1418 FILLER_44_153
*1419 FILLER_44_165
*1420 FILLER_44_177
*1421 FILLER_44_189
*1422 FILLER_44_195
*1423 FILLER_44_197
*1424 FILLER_44_209
*1425 FILLER_44_221
*1426 FILLER_44_233
*1427 FILLER_44_245
*1428 FILLER_44_251
*1429 FILLER_44_253
*1430 FILLER_44_265
*1431 FILLER_44_27
*1432 FILLER_44_277
*1433 FILLER_44_289
*1434 FILLER_44_29
*1435 FILLER_44_297
*1436 FILLER_44_3
*1437 FILLER_44_41
*1438 FILLER_44_53
*1439 FILLER_44_65
*1440 FILLER_44_77
*1441 FILLER_44_83
*1442 FILLER_44_85
*1443 FILLER_44_97
*1444 FILLER_45_105
*1445 FILLER_45_111
*1446 FILLER_45_113
*1447 FILLER_45_125
*1448 FILLER_45_137
*1449 FILLER_45_149
*1450 FILLER_45_15
*1451 FILLER_45_161
*1452 FILLER_45_167
*1453 FILLER_45_169
*1454 FILLER_45_181
*1455 FILLER_45_193
*1456 FILLER_45_205
*1457 FILLER_45_217
*1458 FILLER_45_223
*1459 FILLER_45_225
*1460 FILLER_45_237
*1461 FILLER_45_249
*1462 FILLER_45_261
*1463 FILLER_45_27
*1464 FILLER_45_273
*1465 FILLER_45_279
*1466 FILLER_45_281
*1467 FILLER_45_293
*1468 FILLER_45_3
*1469 FILLER_45_39
*1470 FILLER_45_51
*1471 FILLER_45_55
*1472 FILLER_45_57
*1473 FILLER_45_69
*1474 FILLER_45_81
*1475 FILLER_45_93
*1476 FILLER_46_109
*1477 FILLER_46_121
*1478 FILLER_46_133
*1479 FILLER_46_139
*1480 FILLER_46_141
*1481 FILLER_46_153
*1482 FILLER_46_165
*1483 FILLER_46_177
*1484 FILLER_46_18
*1485 FILLER_46_189
*1486 FILLER_46_195
*1487 FILLER_46_197
*1488 FILLER_46_209
*1489 FILLER_46_221
*1490 FILLER_46_233
*1491 FILLER_46_245
*1492 FILLER_46_251
*1493 FILLER_46_253
*1494 FILLER_46_26
*1495 FILLER_46_265
*1496 FILLER_46_277
*1497 FILLER_46_289
*1498 FILLER_46_29
*1499 FILLER_46_297
*1500 FILLER_46_41
*1501 FILLER_46_53
*1502 FILLER_46_6
*1503 FILLER_46_65
*1504 FILLER_46_77
*1505 FILLER_46_83
*1506 FILLER_46_85
*1507 FILLER_46_97
*1508 FILLER_47_105
*1509 FILLER_47_111
*1510 FILLER_47_113
*1511 FILLER_47_125
*1512 FILLER_47_137
*1513 FILLER_47_149
*1514 FILLER_47_15
*1515 FILLER_47_161
*1516 FILLER_47_167
*1517 FILLER_47_169
*1518 FILLER_47_181
*1519 FILLER_47_193
*1520 FILLER_47_205
*1521 FILLER_47_217
*1522 FILLER_47_223
*1523 FILLER_47_225
*1524 FILLER_47_237
*1525 FILLER_47_249
*1526 FILLER_47_261
*1527 FILLER_47_27
*1528 FILLER_47_273
*1529 FILLER_47_279
*1530 FILLER_47_281
*1531 FILLER_47_293
*1532 FILLER_47_3
*1533 FILLER_47_39
*1534 FILLER_47_51
*1535 FILLER_47_55
*1536 FILLER_47_57
*1537 FILLER_47_69
*1538 FILLER_47_81
*1539 FILLER_47_93
*1540 FILLER_48_109
*1541 FILLER_48_121
*1542 FILLER_48_133
*1543 FILLER_48_139
*1544 FILLER_48_141
*1545 FILLER_48_15
*1546 FILLER_48_153
*1547 FILLER_48_165
*1548 FILLER_48_177
*1549 FILLER_48_189
*1550 FILLER_48_195
*1551 FILLER_48_197
*1552 FILLER_48_209
*1553 FILLER_48_221
*1554 FILLER_48_233
*1555 FILLER_48_245
*1556 FILLER_48_251
*1557 FILLER_48_253
*1558 FILLER_48_265
*1559 FILLER_48_27
*1560 FILLER_48_277
*1561 FILLER_48_289
*1562 FILLER_48_29
*1563 FILLER_48_297
*1564 FILLER_48_3
*1565 FILLER_48_41
*1566 FILLER_48_53
*1567 FILLER_48_65
*1568 FILLER_48_77
*1569 FILLER_48_83
*1570 FILLER_48_85
*1571 FILLER_48_97
*1572 FILLER_49_105
*1573 FILLER_49_111
*1574 FILLER_49_113
*1575 FILLER_49_125
*1576 FILLER_49_137
*1577 FILLER_49_149
*1578 FILLER_49_15
*1579 FILLER_49_161
*1580 FILLER_49_167
*1581 FILLER_49_169
*1582 FILLER_49_181
*1583 FILLER_49_193
*1584 FILLER_49_205
*1585 FILLER_49_217
*1586 FILLER_49_223
*1587 FILLER_49_225
*1588 FILLER_49_237
*1589 FILLER_49_249
*1590 FILLER_49_261
*1591 FILLER_49_27
*1592 FILLER_49_273
*1593 FILLER_49_279
*1594 FILLER_49_281
*1595 FILLER_49_293
*1596 FILLER_49_3
*1597 FILLER_49_39
*1598 FILLER_49_51
*1599 FILLER_49_55
*1600 FILLER_49_57
*1601 FILLER_49_69
*1602 FILLER_49_81
*1603 FILLER_49_93