*SPEF "ieee 1481-1999"
*DESIGN "mm21_LEDMatrixTop"
*DATE "11:11:11 Fri 11 11, 1111"
*VENDOR "OpenRCX"
*PROGRAM "Parallel Extraction"
*VERSION "1.0"
*DESIGN_FLOW "NAME_SCOPE LOCAL" "PIN_CAP NONE"
*DIVIDER /
*DELIMITER :
*BUS_DELIMITER []
*T_UNIT 1 NS
*C_UNIT 1 PF
*R_UNIT 1 OHM
*L_UNIT 1 HENRY

*NAME_MAP
*1 io_in[0]
*2 io_in[1]
*3 io_in[2]
*4 io_in[3]
*5 io_in[4]
*6 io_in[5]
*7 io_in[6]
*8 io_in[7]
*9 io_out[0]
*10 io_out[1]
*11 io_out[2]
*12 io_out[3]
*13 io_out[4]
*14 io_out[5]
*15 io_out[6]
*16 net3
*19 _000_
*20 _001_
*21 _002_
*22 _003_
*23 _004_
*24 _005_
*25 _006_
*26 _007_
*27 _008_
*28 _009_
*29 _010_
*30 _011_
*31 _012_
*32 _013_
*33 _014_
*34 _015_
*35 _016_
*36 _017_
*37 _018_
*38 _019_
*39 _020_
*40 _021_
*41 _022_
*42 _023_
*43 _024_
*44 _025_
*45 _026_
*46 _027_
*47 _028_
*48 _029_
*49 _030_
*50 _031_
*51 _032_
*52 _033_
*53 _034_
*54 _035_
*55 _036_
*56 _037_
*57 _038_
*58 _039_
*59 _040_
*60 _041_
*61 _042_
*62 _043_
*63 _044_
*64 _045_
*65 _046_
*66 _047_
*67 _048_
*68 _049_
*69 _050_
*70 _051_
*71 _052_
*72 _053_
*73 _054_
*74 _055_
*75 _056_
*76 _057_
*77 _058_
*78 _059_
*79 _060_
*80 _061_
*81 _062_
*82 _063_
*83 _064_
*84 _065_
*85 _066_
*86 _067_
*87 _068_
*88 _069_
*89 _070_
*90 _071_
*91 _072_
*92 _073_
*93 _074_
*94 _075_
*95 _076_
*96 _077_
*97 _078_
*98 _079_
*99 _080_
*100 _081_
*101 _082_
*102 _083_
*103 _084_
*104 _085_
*105 _086_
*106 _087_
*107 _088_
*108 _089_
*109 _090_
*110 _091_
*111 _092_
*112 _093_
*113 _094_
*114 _095_
*115 _096_
*116 _097_
*117 _098_
*118 _099_
*119 _100_
*120 _101_
*121 _102_
*122 _103_
*123 _104_
*124 _105_
*125 _106_
*126 _107_
*127 _108_
*128 _109_
*129 _110_
*130 _111_
*131 _112_
*132 _113_
*133 _114_
*134 _115_
*135 _116_
*136 _117_
*137 _118_
*138 _119_
*139 _120_
*140 _121_
*141 _122_
*142 _123_
*143 _124_
*144 _125_
*145 _126_
*146 _127_
*147 _128_
*148 _129_
*149 _130_
*150 _131_
*151 _132_
*152 _133_
*153 _134_
*154 _135_
*155 _136_
*156 _137_
*157 _138_
*158 _139_
*159 _140_
*160 _141_
*161 _142_
*162 _143_
*163 _144_
*164 _145_
*165 _146_
*166 _147_
*167 _148_
*168 _149_
*169 _150_
*170 _151_
*171 _152_
*172 _153_
*173 _154_
*174 _155_
*175 _156_
*176 _157_
*177 _158_
*178 _159_
*179 _160_
*180 _161_
*181 _162_
*182 _163_
*183 _164_
*184 _165_
*185 _166_
*186 _167_
*187 _168_
*188 _169_
*189 _170_
*190 _171_
*191 _172_
*192 _173_
*193 _174_
*194 _175_
*195 _176_
*196 _177_
*197 _178_
*198 _179_
*199 _180_
*200 _181_
*201 _182_
*202 _183_
*203 _184_
*204 _185_
*205 _186_
*206 _187_
*207 _188_
*208 _189_
*209 _190_
*210 _191_
*211 async_reset_inst\.reset_fifo\[0\]
*212 async_reset_inst\.reset_fifo\[1\]
*213 async_reset_inst\.reset_fifo\[2\]
*214 clknet_0_io_in[0]
*215 clknet_2_0__leaf_io_in[0]
*216 clknet_2_1__leaf_io_in[0]
*217 clknet_2_2__leaf_io_in[0]
*218 clknet_2_3__leaf_io_in[0]
*219 ledmatrix_driver_inst\.col_idx\[0\]
*220 ledmatrix_driver_inst\.col_idx\[1\]
*221 ledmatrix_driver_inst\.col_idx\[2\]
*222 ledmatrix_driver_inst\.led_color_inst\.pixel_offset\[0\]
*223 ledmatrix_driver_inst\.led_color_inst\.pixel_offset\[1\]
*224 ledmatrix_driver_inst\.led_color_inst\.pixel_offset\[2\]
*225 ledmatrix_driver_inst\.led_color_inst\.row_idx\[0\]
*226 ledmatrix_driver_inst\.led_color_inst\.row_idx\[1\]
*227 ledmatrix_driver_inst\.led_color_inst\.row_idx\[2\]
*228 ledmatrix_driver_inst\.mosi
*229 ledmatrix_driver_inst\.n_cs
*230 ledmatrix_driver_inst\.sclk
*231 ledmatrix_driver_inst\.spi_master_inst\.cs_delay_counter\[0\]
*232 ledmatrix_driver_inst\.spi_master_inst\.cs_delay_counter\[1\]
*233 ledmatrix_driver_inst\.spi_master_inst\.cs_delay_counter\[2\]
*234 ledmatrix_driver_inst\.spi_master_inst\.cs_delay_counter\[3\]
*235 ledmatrix_driver_inst\.spi_master_inst\.mosi_mask
*236 ledmatrix_driver_inst\.spi_master_inst\.state\[0\]
*237 ledmatrix_driver_inst\.spi_master_inst\.state\[1\]
*238 ledmatrix_driver_inst\.spi_master_inst\.state\[2\]
*239 ledmatrix_driver_inst\.spi_master_inst\.state\[3\]
*240 ledmatrix_driver_inst\.spi_master_inst\.tx_byte_reg\[0\]
*241 ledmatrix_driver_inst\.spi_master_inst\.tx_byte_reg\[1\]
*242 ledmatrix_driver_inst\.spi_master_inst\.tx_byte_reg\[2\]
*243 ledmatrix_driver_inst\.spi_master_inst\.tx_byte_reg\[3\]
*244 ledmatrix_driver_inst\.spi_master_inst\.tx_byte_reg\[4\]
*245 ledmatrix_driver_inst\.spi_master_inst\.tx_byte_reg\[5\]
*246 ledmatrix_driver_inst\.spi_master_inst\.tx_byte_reg\[6\]
*247 ledmatrix_driver_inst\.spi_master_inst\.tx_byte_reg\[7\]
*248 ledmatrix_driver_inst\.spi_master_inst\.tx_clear_cs
*249 ledmatrix_driver_inst\.spi_master_inst\.tx_clear_cs_reg
*250 ledmatrix_driver_inst\.spi_master_inst\.tx_counter_reg\[0\]
*251 ledmatrix_driver_inst\.spi_master_inst\.tx_counter_reg\[1\]
*252 ledmatrix_driver_inst\.spi_master_inst\.tx_counter_reg\[2\]
*253 ledmatrix_driver_inst\.spi_master_inst\.tx_ready
*254 ledmatrix_driver_inst\.spi_master_inst\.tx_valid
*255 ledmatrix_driver_inst\.state
*256 net1
*257 net2
*258 net4
*259 net5
*260 sevenseg_inst\.counter\[0\]
*261 sevenseg_inst\.counter\[1\]
*262 sevenseg_inst\.counter\[2\]
*263 sevenseg_inst\.counter\[3\]
*264 sevenseg_inst\.counter\[4\]
*265 sevenseg_inst\.counter\[5\]
*266 sevenseg_inst\.counter\[6\]
*267 sevenseg_inst\.counter\[7\]
*268 sevenseg_inst\.down
*269 sevenseg_inst\.left
*270 sevenseg_inst\.right
*271 sevenseg_inst\.state\[0\]
*272 sevenseg_inst\.state\[1\]
*273 sevenseg_inst\.up
*274 FILLER_0_109
*275 FILLER_0_113
*276 FILLER_0_125
*277 FILLER_0_137
*278 FILLER_0_141
*279 FILLER_0_15
*280 FILLER_0_153
*281 FILLER_0_165
*282 FILLER_0_169
*283 FILLER_0_181
*284 FILLER_0_193
*285 FILLER_0_197
*286 FILLER_0_209
*287 FILLER_0_221
*288 FILLER_0_225
*289 FILLER_0_237
*290 FILLER_0_249
*291 FILLER_0_253
*292 FILLER_0_265
*293 FILLER_0_27
*294 FILLER_0_277
*295 FILLER_0_281
*296 FILLER_0_29
*297 FILLER_0_293
*298 FILLER_0_3
*299 FILLER_0_48
*300 FILLER_0_57
*301 FILLER_0_69
*302 FILLER_0_81
*303 FILLER_0_85
*304 FILLER_0_97
*305 FILLER_10_109
*306 FILLER_10_121
*307 FILLER_10_133
*308 FILLER_10_139
*309 FILLER_10_141
*310 FILLER_10_153
*311 FILLER_10_165
*312 FILLER_10_177
*313 FILLER_10_189
*314 FILLER_10_19
*315 FILLER_10_195
*316 FILLER_10_197
*317 FILLER_10_209
*318 FILLER_10_221
*319 FILLER_10_233
*320 FILLER_10_245
*321 FILLER_10_251
*322 FILLER_10_253
*323 FILLER_10_265
*324 FILLER_10_27
*325 FILLER_10_277
*326 FILLER_10_289
*327 FILLER_10_297
*328 FILLER_10_45
*329 FILLER_10_57
*330 FILLER_10_63
*331 FILLER_10_72
*332 FILLER_10_85
*333 FILLER_10_97
*334 FILLER_11_105
*335 FILLER_11_111
*336 FILLER_11_113
*337 FILLER_11_125
*338 FILLER_11_137
*339 FILLER_11_149
*340 FILLER_11_161
*341 FILLER_11_167
*342 FILLER_11_169
*343 FILLER_11_181
*344 FILLER_11_193
*345 FILLER_11_205
*346 FILLER_11_21
*347 FILLER_11_217
*348 FILLER_11_223
*349 FILLER_11_225
*350 FILLER_11_237
*351 FILLER_11_249
*352 FILLER_11_261
*353 FILLER_11_273
*354 FILLER_11_279
*355 FILLER_11_281
*356 FILLER_11_293
*357 FILLER_11_3
*358 FILLER_11_41
*359 FILLER_11_53
*360 FILLER_11_57
*361 FILLER_11_69
*362 FILLER_11_81
*363 FILLER_11_93
*364 FILLER_12_109
*365 FILLER_12_121
*366 FILLER_12_133
*367 FILLER_12_139
*368 FILLER_12_141
*369 FILLER_12_153
*370 FILLER_12_165
*371 FILLER_12_177
*372 FILLER_12_189
*373 FILLER_12_195
*374 FILLER_12_197
*375 FILLER_12_20
*376 FILLER_12_209
*377 FILLER_12_221
*378 FILLER_12_233
*379 FILLER_12_245
*380 FILLER_12_251
*381 FILLER_12_253
*382 FILLER_12_265
*383 FILLER_12_277
*384 FILLER_12_289
*385 FILLER_12_29
*386 FILLER_12_297
*387 FILLER_12_3
*388 FILLER_12_41
*389 FILLER_12_53
*390 FILLER_12_64
*391 FILLER_12_76
*392 FILLER_12_85
*393 FILLER_12_97
*394 FILLER_13_109
*395 FILLER_13_113
*396 FILLER_13_125
*397 FILLER_13_137
*398 FILLER_13_149
*399 FILLER_13_161
*400 FILLER_13_167
*401 FILLER_13_169
*402 FILLER_13_181
*403 FILLER_13_19
*404 FILLER_13_193
*405 FILLER_13_205
*406 FILLER_13_217
*407 FILLER_13_223
*408 FILLER_13_225
*409 FILLER_13_237
*410 FILLER_13_249
*411 FILLER_13_261
*412 FILLER_13_273
*413 FILLER_13_279
*414 FILLER_13_281
*415 FILLER_13_293
*416 FILLER_13_41
*417 FILLER_13_53
*418 FILLER_13_57
*419 FILLER_13_65
*420 FILLER_13_76
*421 FILLER_13_85
*422 FILLER_13_97
*423 FILLER_14_100
*424 FILLER_14_112
*425 FILLER_14_124
*426 FILLER_14_136
*427 FILLER_14_141
*428 FILLER_14_153
*429 FILLER_14_165
*430 FILLER_14_177
*431 FILLER_14_189
*432 FILLER_14_195
*433 FILLER_14_197
*434 FILLER_14_209
*435 FILLER_14_221
*436 FILLER_14_233
*437 FILLER_14_24
*438 FILLER_14_245
*439 FILLER_14_251
*440 FILLER_14_253
*441 FILLER_14_265
*442 FILLER_14_277
*443 FILLER_14_289
*444 FILLER_14_29
*445 FILLER_14_297
*446 FILLER_14_3
*447 FILLER_14_47
*448 FILLER_14_59
*449 FILLER_14_69
*450 FILLER_14_7
*451 FILLER_14_81
*452 FILLER_14_88
*453 FILLER_15_102
*454 FILLER_15_110
*455 FILLER_15_113
*456 FILLER_15_125
*457 FILLER_15_137
*458 FILLER_15_149
*459 FILLER_15_161
*460 FILLER_15_167
*461 FILLER_15_169
*462 FILLER_15_181
*463 FILLER_15_19
*464 FILLER_15_193
*465 FILLER_15_205
*466 FILLER_15_217
*467 FILLER_15_223
*468 FILLER_15_225
*469 FILLER_15_237
*470 FILLER_15_249
*471 FILLER_15_261
*472 FILLER_15_273
*473 FILLER_15_279
*474 FILLER_15_281
*475 FILLER_15_293
*476 FILLER_15_39
*477 FILLER_15_51
*478 FILLER_15_55
*479 FILLER_15_63
*480 FILLER_15_71
*481 FILLER_15_80
*482 FILLER_15_84
*483 FILLER_15_90
*484 FILLER_16_105
*485 FILLER_16_117
*486 FILLER_16_129
*487 FILLER_16_137
*488 FILLER_16_141
*489 FILLER_16_153
*490 FILLER_16_165
*491 FILLER_16_177
*492 FILLER_16_189
*493 FILLER_16_19
*494 FILLER_16_195
*495 FILLER_16_197
*496 FILLER_16_209
*497 FILLER_16_221
*498 FILLER_16_233
*499 FILLER_16_245
*500 FILLER_16_251
*501 FILLER_16_253
*502 FILLER_16_265
*503 FILLER_16_27
*504 FILLER_16_277
*505 FILLER_16_289
*506 FILLER_16_29
*507 FILLER_16_297
*508 FILLER_16_53
*509 FILLER_16_67
*510 FILLER_16_79
*511 FILLER_16_83
*512 FILLER_16_93
*513 FILLER_17_105
*514 FILLER_17_111
*515 FILLER_17_113
*516 FILLER_17_125
*517 FILLER_17_137
*518 FILLER_17_149
*519 FILLER_17_15
*520 FILLER_17_161
*521 FILLER_17_167
*522 FILLER_17_169
*523 FILLER_17_181
*524 FILLER_17_19
*525 FILLER_17_193
*526 FILLER_17_205
*527 FILLER_17_217
*528 FILLER_17_223
*529 FILLER_17_225
*530 FILLER_17_237
*531 FILLER_17_249
*532 FILLER_17_261
*533 FILLER_17_273
*534 FILLER_17_279
*535 FILLER_17_281
*536 FILLER_17_293
*537 FILLER_17_3
*538 FILLER_17_36
*539 FILLER_17_48
*540 FILLER_17_62
*541 FILLER_17_74
*542 FILLER_17_80
*543 FILLER_17_88
*544 FILLER_17_96
*545 FILLER_18_107
*546 FILLER_18_116
*547 FILLER_18_128
*548 FILLER_18_141
*549 FILLER_18_153
*550 FILLER_18_165
*551 FILLER_18_177
*552 FILLER_18_189
*553 FILLER_18_195
*554 FILLER_18_197
*555 FILLER_18_20
*556 FILLER_18_209
*557 FILLER_18_221
*558 FILLER_18_233
*559 FILLER_18_245
*560 FILLER_18_251
*561 FILLER_18_253
*562 FILLER_18_265
*563 FILLER_18_277
*564 FILLER_18_289
*565 FILLER_18_29
*566 FILLER_18_297
*567 FILLER_18_3
*568 FILLER_18_50
*569 FILLER_18_58
*570 FILLER_18_65
*571 FILLER_18_73
*572 FILLER_18_78
*573 FILLER_18_95
*574 FILLER_19_106
*575 FILLER_19_113
*576 FILLER_19_125
*577 FILLER_19_137
*578 FILLER_19_149
*579 FILLER_19_161
*580 FILLER_19_167
*581 FILLER_19_169
*582 FILLER_19_181
*583 FILLER_19_19
*584 FILLER_19_193
*585 FILLER_19_205
*586 FILLER_19_217
*587 FILLER_19_223
*588 FILLER_19_225
*589 FILLER_19_23
*590 FILLER_19_237
*591 FILLER_19_249
*592 FILLER_19_261
*593 FILLER_19_273
*594 FILLER_19_279
*595 FILLER_19_281
*596 FILLER_19_293
*597 FILLER_19_40
*598 FILLER_19_52
*599 FILLER_19_57
*600 FILLER_19_72
*601 FILLER_19_84
*602 FILLER_19_94
*603 FILLER_1_104
*604 FILLER_1_113
*605 FILLER_1_125
*606 FILLER_1_137
*607 FILLER_1_149
*608 FILLER_1_15
*609 FILLER_1_161
*610 FILLER_1_167
*611 FILLER_1_169
*612 FILLER_1_181
*613 FILLER_1_193
*614 FILLER_1_205
*615 FILLER_1_217
*616 FILLER_1_223
*617 FILLER_1_225
*618 FILLER_1_237
*619 FILLER_1_249
*620 FILLER_1_25
*621 FILLER_1_261
*622 FILLER_1_273
*623 FILLER_1_279
*624 FILLER_1_281
*625 FILLER_1_293
*626 FILLER_1_3
*627 FILLER_1_31
*628 FILLER_1_48
*629 FILLER_1_57
*630 FILLER_1_69
*631 FILLER_1_81
*632 FILLER_1_93
*633 FILLER_20_102
*634 FILLER_20_118
*635 FILLER_20_130
*636 FILLER_20_138
*637 FILLER_20_141
*638 FILLER_20_153
*639 FILLER_20_165
*640 FILLER_20_177
*641 FILLER_20_189
*642 FILLER_20_195
*643 FILLER_20_197
*644 FILLER_20_209
*645 FILLER_20_21
*646 FILLER_20_221
*647 FILLER_20_233
*648 FILLER_20_245
*649 FILLER_20_251
*650 FILLER_20_253
*651 FILLER_20_265
*652 FILLER_20_27
*653 FILLER_20_277
*654 FILLER_20_289
*655 FILLER_20_29
*656 FILLER_20_297
*657 FILLER_20_3
*658 FILLER_20_47
*659 FILLER_20_56
*660 FILLER_20_64
*661 FILLER_20_72
*662 FILLER_20_80
*663 FILLER_20_93
*664 FILLER_21_108
*665 FILLER_21_120
*666 FILLER_21_132
*667 FILLER_21_144
*668 FILLER_21_156
*669 FILLER_21_169
*670 FILLER_21_181
*671 FILLER_21_193
*672 FILLER_21_205
*673 FILLER_21_217
*674 FILLER_21_223
*675 FILLER_21_225
*676 FILLER_21_237
*677 FILLER_21_249
*678 FILLER_21_261
*679 FILLER_21_27
*680 FILLER_21_273
*681 FILLER_21_279
*682 FILLER_21_281
*683 FILLER_21_293
*684 FILLER_21_3
*685 FILLER_21_35
*686 FILLER_21_52
*687 FILLER_21_62
*688 FILLER_21_68
*689 FILLER_21_75
*690 FILLER_21_81
*691 FILLER_21_88
*692 FILLER_21_95
*693 FILLER_22_111
*694 FILLER_22_123
*695 FILLER_22_135
*696 FILLER_22_139
*697 FILLER_22_141
*698 FILLER_22_153
*699 FILLER_22_165
*700 FILLER_22_177
*701 FILLER_22_189
*702 FILLER_22_195
*703 FILLER_22_197
*704 FILLER_22_209
*705 FILLER_22_221
*706 FILLER_22_233
*707 FILLER_22_24
*708 FILLER_22_245
*709 FILLER_22_251
*710 FILLER_22_253
*711 FILLER_22_265
*712 FILLER_22_277
*713 FILLER_22_289
*714 FILLER_22_297
*715 FILLER_22_3
*716 FILLER_22_46
*717 FILLER_22_54
*718 FILLER_22_62
*719 FILLER_22_71
*720 FILLER_22_79
*721 FILLER_22_83
*722 FILLER_22_85
*723 FILLER_22_91
*724 FILLER_22_99
*725 FILLER_23_105
*726 FILLER_23_111
*727 FILLER_23_113
*728 FILLER_23_125
*729 FILLER_23_137
*730 FILLER_23_149
*731 FILLER_23_15
*732 FILLER_23_161
*733 FILLER_23_167
*734 FILLER_23_169
*735 FILLER_23_181
*736 FILLER_23_193
*737 FILLER_23_205
*738 FILLER_23_217
*739 FILLER_23_223
*740 FILLER_23_225
*741 FILLER_23_237
*742 FILLER_23_249
*743 FILLER_23_261
*744 FILLER_23_273
*745 FILLER_23_279
*746 FILLER_23_281
*747 FILLER_23_293
*748 FILLER_23_3
*749 FILLER_23_36
*750 FILLER_23_48
*751 FILLER_23_57
*752 FILLER_23_69
*753 FILLER_23_80
*754 FILLER_23_90
*755 FILLER_24_102
*756 FILLER_24_114
*757 FILLER_24_126
*758 FILLER_24_138
*759 FILLER_24_141
*760 FILLER_24_153
*761 FILLER_24_165
*762 FILLER_24_177
*763 FILLER_24_189
*764 FILLER_24_19
*765 FILLER_24_195
*766 FILLER_24_197
*767 FILLER_24_209
*768 FILLER_24_221
*769 FILLER_24_233
*770 FILLER_24_245
*771 FILLER_24_251
*772 FILLER_24_253
*773 FILLER_24_265
*774 FILLER_24_27
*775 FILLER_24_277
*776 FILLER_24_289
*777 FILLER_24_29
*778 FILLER_24_297
*779 FILLER_24_58
*780 FILLER_24_67
*781 FILLER_24_71
*782 FILLER_24_79
*783 FILLER_24_83
*784 FILLER_24_85
*785 FILLER_24_95
*786 FILLER_25_107
*787 FILLER_25_111
*788 FILLER_25_113
*789 FILLER_25_125
*790 FILLER_25_137
*791 FILLER_25_149
*792 FILLER_25_15
*793 FILLER_25_161
*794 FILLER_25_167
*795 FILLER_25_169
*796 FILLER_25_181
*797 FILLER_25_193
*798 FILLER_25_205
*799 FILLER_25_217
*800 FILLER_25_223
*801 FILLER_25_225
*802 FILLER_25_237
*803 FILLER_25_249
*804 FILLER_25_261
*805 FILLER_25_273
*806 FILLER_25_279
*807 FILLER_25_281
*808 FILLER_25_293
*809 FILLER_25_3
*810 FILLER_25_35
*811 FILLER_25_47
*812 FILLER_25_55
*813 FILLER_25_60
*814 FILLER_25_68
*815 FILLER_25_73
*816 FILLER_25_87
*817 FILLER_25_95
*818 FILLER_26_109
*819 FILLER_26_121
*820 FILLER_26_133
*821 FILLER_26_139
*822 FILLER_26_141
*823 FILLER_26_15
*824 FILLER_26_153
*825 FILLER_26_165
*826 FILLER_26_177
*827 FILLER_26_189
*828 FILLER_26_195
*829 FILLER_26_197
*830 FILLER_26_209
*831 FILLER_26_221
*832 FILLER_26_233
*833 FILLER_26_24
*834 FILLER_26_245
*835 FILLER_26_251
*836 FILLER_26_253
*837 FILLER_26_265
*838 FILLER_26_277
*839 FILLER_26_289
*840 FILLER_26_297
*841 FILLER_26_3
*842 FILLER_26_45
*843 FILLER_26_57
*844 FILLER_26_69
*845 FILLER_26_78
*846 FILLER_26_85
*847 FILLER_26_97
*848 FILLER_27_105
*849 FILLER_27_111
*850 FILLER_27_113
*851 FILLER_27_125
*852 FILLER_27_137
*853 FILLER_27_149
*854 FILLER_27_161
*855 FILLER_27_167
*856 FILLER_27_169
*857 FILLER_27_181
*858 FILLER_27_193
*859 FILLER_27_205
*860 FILLER_27_217
*861 FILLER_27_223
*862 FILLER_27_225
*863 FILLER_27_237
*864 FILLER_27_249
*865 FILLER_27_26
*866 FILLER_27_261
*867 FILLER_27_273
*868 FILLER_27_279
*869 FILLER_27_281
*870 FILLER_27_293
*871 FILLER_27_3
*872 FILLER_27_46
*873 FILLER_27_54
*874 FILLER_27_57
*875 FILLER_27_63
*876 FILLER_27_72
*877 FILLER_27_76
*878 FILLER_27_83
*879 FILLER_27_9
*880 FILLER_27_90
*881 FILLER_27_98
*882 FILLER_28_103
*883 FILLER_28_114
*884 FILLER_28_126
*885 FILLER_28_138
*886 FILLER_28_141
*887 FILLER_28_153
*888 FILLER_28_165
*889 FILLER_28_177
*890 FILLER_28_189
*891 FILLER_28_195
*892 FILLER_28_197
*893 FILLER_28_20
*894 FILLER_28_209
*895 FILLER_28_221
*896 FILLER_28_233
*897 FILLER_28_245
*898 FILLER_28_251
*899 FILLER_28_253
*900 FILLER_28_265
*901 FILLER_28_277
*902 FILLER_28_289
*903 FILLER_28_29
*904 FILLER_28_297
*905 FILLER_28_3
*906 FILLER_28_49
*907 FILLER_28_69
*908 FILLER_28_77
*909 FILLER_28_83
*910 FILLER_28_85
*911 FILLER_28_91
*912 FILLER_29_111
*913 FILLER_29_113
*914 FILLER_29_122
*915 FILLER_29_134
*916 FILLER_29_146
*917 FILLER_29_158
*918 FILLER_29_166
*919 FILLER_29_169
*920 FILLER_29_181
*921 FILLER_29_193
*922 FILLER_29_205
*923 FILLER_29_217
*924 FILLER_29_223
*925 FILLER_29_225
*926 FILLER_29_237
*927 FILLER_29_249
*928 FILLER_29_25
*929 FILLER_29_261
*930 FILLER_29_273
*931 FILLER_29_279
*932 FILLER_29_281
*933 FILLER_29_293
*934 FILLER_29_3
*935 FILLER_29_50
*936 FILLER_29_57
*937 FILLER_29_65
*938 FILLER_29_71
*939 FILLER_29_75
*940 FILLER_29_79
*941 FILLER_29_87
*942 FILLER_29_99
*943 FILLER_2_109
*944 FILLER_2_121
*945 FILLER_2_133
*946 FILLER_2_139
*947 FILLER_2_141
*948 FILLER_2_153
*949 FILLER_2_165
*950 FILLER_2_177
*951 FILLER_2_189
*952 FILLER_2_195
*953 FILLER_2_197
*954 FILLER_2_20
*955 FILLER_2_209
*956 FILLER_2_221
*957 FILLER_2_233
*958 FILLER_2_245
*959 FILLER_2_251
*960 FILLER_2_253
*961 FILLER_2_265
*962 FILLER_2_277
*963 FILLER_2_289
*964 FILLER_2_297
*965 FILLER_2_45
*966 FILLER_2_57
*967 FILLER_2_69
*968 FILLER_2_81
*969 FILLER_2_85
*970 FILLER_2_97
*971 FILLER_30_103
*972 FILLER_30_118
*973 FILLER_30_130
*974 FILLER_30_138
*975 FILLER_30_141
*976 FILLER_30_153
*977 FILLER_30_158
*978 FILLER_30_170
*979 FILLER_30_182
*980 FILLER_30_19
*981 FILLER_30_194
*982 FILLER_30_197
*983 FILLER_30_209
*984 FILLER_30_221
*985 FILLER_30_233
*986 FILLER_30_245
*987 FILLER_30_251
*988 FILLER_30_253
*989 FILLER_30_265
*990 FILLER_30_27
*991 FILLER_30_277
*992 FILLER_30_289
*993 FILLER_30_29
*994 FILLER_30_297
*995 FILLER_30_46
*996 FILLER_30_58
*997 FILLER_30_73
*998 FILLER_30_81
*999 FILLER_30_88
*1000 FILLER_30_95
*1001 FILLER_31_102
*1002 FILLER_31_110
*1003 FILLER_31_113
*1004 FILLER_31_126
*1005 FILLER_31_138
*1006 FILLER_31_150
*1007 FILLER_31_162
*1008 FILLER_31_169
*1009 FILLER_31_17
*1010 FILLER_31_181
*1011 FILLER_31_193
*1012 FILLER_31_205
*1013 FILLER_31_217
*1014 FILLER_31_223
*1015 FILLER_31_225
*1016 FILLER_31_237
*1017 FILLER_31_249
*1018 FILLER_31_261
*1019 FILLER_31_273
*1020 FILLER_31_279
*1021 FILLER_31_281
*1022 FILLER_31_29
*1023 FILLER_31_293
*1024 FILLER_31_3
*1025 FILLER_31_36
*1026 FILLER_31_48
*1027 FILLER_31_57
*1028 FILLER_31_69
*1029 FILLER_31_73
*1030 FILLER_31_84
*1031 FILLER_31_9
*1032 FILLER_31_92
*1033 FILLER_32_110
*1034 FILLER_32_114
*1035 FILLER_32_120
*1036 FILLER_32_132
*1037 FILLER_32_141
*1038 FILLER_32_15
*1039 FILLER_32_153
*1040 FILLER_32_165
*1041 FILLER_32_177
*1042 FILLER_32_189
*1043 FILLER_32_195
*1044 FILLER_32_197
*1045 FILLER_32_209
*1046 FILLER_32_221
*1047 FILLER_32_233
*1048 FILLER_32_245
*1049 FILLER_32_251
*1050 FILLER_32_253
*1051 FILLER_32_265
*1052 FILLER_32_27
*1053 FILLER_32_277
*1054 FILLER_32_289
*1055 FILLER_32_29
*1056 FILLER_32_297
*1057 FILLER_32_3
*1058 FILLER_32_41
*1059 FILLER_32_53
*1060 FILLER_32_65
*1061 FILLER_32_74
*1062 FILLER_32_82
*1063 FILLER_32_88
*1064 FILLER_32_95
*1065 FILLER_33_102
*1066 FILLER_33_110
*1067 FILLER_33_113
*1068 FILLER_33_125
*1069 FILLER_33_137
*1070 FILLER_33_149
*1071 FILLER_33_15
*1072 FILLER_33_161
*1073 FILLER_33_167
*1074 FILLER_33_169
*1075 FILLER_33_181
*1076 FILLER_33_193
*1077 FILLER_33_205
*1078 FILLER_33_217
*1079 FILLER_33_223
*1080 FILLER_33_225
*1081 FILLER_33_237
*1082 FILLER_33_249
*1083 FILLER_33_261
*1084 FILLER_33_27
*1085 FILLER_33_273
*1086 FILLER_33_279
*1087 FILLER_33_281
*1088 FILLER_33_293
*1089 FILLER_33_3
*1090 FILLER_33_39
*1091 FILLER_33_51
*1092 FILLER_33_55
*1093 FILLER_33_57
*1094 FILLER_33_65
*1095 FILLER_33_71
*1096 FILLER_33_79
*1097 FILLER_33_85
*1098 FILLER_33_94
*1099 FILLER_34_103
*1100 FILLER_34_107
*1101 FILLER_34_115
*1102 FILLER_34_127
*1103 FILLER_34_139
*1104 FILLER_34_141
*1105 FILLER_34_15
*1106 FILLER_34_153
*1107 FILLER_34_165
*1108 FILLER_34_177
*1109 FILLER_34_189
*1110 FILLER_34_195
*1111 FILLER_34_197
*1112 FILLER_34_209
*1113 FILLER_34_221
*1114 FILLER_34_233
*1115 FILLER_34_245
*1116 FILLER_34_251
*1117 FILLER_34_253
*1118 FILLER_34_265
*1119 FILLER_34_27
*1120 FILLER_34_277
*1121 FILLER_34_289
*1122 FILLER_34_297
*1123 FILLER_34_3
*1124 FILLER_34_35
*1125 FILLER_34_39
*1126 FILLER_34_43
*1127 FILLER_34_54
*1128 FILLER_34_62
*1129 FILLER_34_69
*1130 FILLER_34_75
*1131 FILLER_34_80
*1132 FILLER_34_95
*1133 FILLER_35_104
*1134 FILLER_35_120
*1135 FILLER_35_132
*1136 FILLER_35_144
*1137 FILLER_35_156
*1138 FILLER_35_169
*1139 FILLER_35_18
*1140 FILLER_35_181
*1141 FILLER_35_193
*1142 FILLER_35_205
*1143 FILLER_35_217
*1144 FILLER_35_223
*1145 FILLER_35_225
*1146 FILLER_35_237
*1147 FILLER_35_249
*1148 FILLER_35_25
*1149 FILLER_35_261
*1150 FILLER_35_273
*1151 FILLER_35_279
*1152 FILLER_35_281
*1153 FILLER_35_293
*1154 FILLER_35_3
*1155 FILLER_35_33
*1156 FILLER_35_38
*1157 FILLER_35_49
*1158 FILLER_35_55
*1159 FILLER_35_57
*1160 FILLER_35_67
*1161 FILLER_35_7
*1162 FILLER_35_76
*1163 FILLER_35_88
*1164 FILLER_35_97
*1165 FILLER_36_102
*1166 FILLER_36_110
*1167 FILLER_36_118
*1168 FILLER_36_130
*1169 FILLER_36_135
*1170 FILLER_36_139
*1171 FILLER_36_141
*1172 FILLER_36_15
*1173 FILLER_36_153
*1174 FILLER_36_165
*1175 FILLER_36_177
*1176 FILLER_36_189
*1177 FILLER_36_195
*1178 FILLER_36_197
*1179 FILLER_36_20
*1180 FILLER_36_209
*1181 FILLER_36_221
*1182 FILLER_36_233
*1183 FILLER_36_245
*1184 FILLER_36_251
*1185 FILLER_36_253
*1186 FILLER_36_265
*1187 FILLER_36_277
*1188 FILLER_36_289
*1189 FILLER_36_29
*1190 FILLER_36_297
*1191 FILLER_36_3
*1192 FILLER_36_37
*1193 FILLER_36_48
*1194 FILLER_36_58
*1195 FILLER_36_72
*1196 FILLER_36_80
*1197 FILLER_36_91
*1198 FILLER_36_95
*1199 FILLER_37_106
*1200 FILLER_37_113
*1201 FILLER_37_125
*1202 FILLER_37_137
*1203 FILLER_37_149
*1204 FILLER_37_15
*1205 FILLER_37_161
*1206 FILLER_37_167
*1207 FILLER_37_169
*1208 FILLER_37_181
*1209 FILLER_37_193
*1210 FILLER_37_20
*1211 FILLER_37_205
*1212 FILLER_37_217
*1213 FILLER_37_223
*1214 FILLER_37_225
*1215 FILLER_37_237
*1216 FILLER_37_249
*1217 FILLER_37_261
*1218 FILLER_37_273
*1219 FILLER_37_279
*1220 FILLER_37_281
*1221 FILLER_37_293
*1222 FILLER_37_3
*1223 FILLER_37_30
*1224 FILLER_37_37
*1225 FILLER_37_49
*1226 FILLER_37_55
*1227 FILLER_37_61
*1228 FILLER_37_68
*1229 FILLER_37_72
*1230 FILLER_37_80
*1231 FILLER_37_84
*1232 FILLER_37_88
*1233 FILLER_37_97
*1234 FILLER_38_112
*1235 FILLER_38_12
*1236 FILLER_38_124
*1237 FILLER_38_136
*1238 FILLER_38_141
*1239 FILLER_38_153
*1240 FILLER_38_165
*1241 FILLER_38_177
*1242 FILLER_38_189
*1243 FILLER_38_195
*1244 FILLER_38_197
*1245 FILLER_38_209
*1246 FILLER_38_221
*1247 FILLER_38_23
*1248 FILLER_38_233
*1249 FILLER_38_245
*1250 FILLER_38_251
*1251 FILLER_38_253
*1252 FILLER_38_265
*1253 FILLER_38_27
*1254 FILLER_38_277
*1255 FILLER_38_289
*1256 FILLER_38_29
*1257 FILLER_38_297
*1258 FILLER_38_36
*1259 FILLER_38_44
*1260 FILLER_38_56
*1261 FILLER_38_63
*1262 FILLER_38_70
*1263 FILLER_38_76
*1264 FILLER_38_80
*1265 FILLER_38_85
*1266 FILLER_38_99
*1267 FILLER_39_102
*1268 FILLER_39_11
*1269 FILLER_39_110
*1270 FILLER_39_113
*1271 FILLER_39_121
*1272 FILLER_39_133
*1273 FILLER_39_145
*1274 FILLER_39_157
*1275 FILLER_39_165
*1276 FILLER_39_169
*1277 FILLER_39_17
*1278 FILLER_39_181
*1279 FILLER_39_193
*1280 FILLER_39_205
*1281 FILLER_39_217
*1282 FILLER_39_223
*1283 FILLER_39_225
*1284 FILLER_39_237
*1285 FILLER_39_249
*1286 FILLER_39_261
*1287 FILLER_39_273
*1288 FILLER_39_279
*1289 FILLER_39_281
*1290 FILLER_39_293
*1291 FILLER_39_3
*1292 FILLER_39_32
*1293 FILLER_39_44
*1294 FILLER_39_63
*1295 FILLER_39_73
*1296 FILLER_39_82
*1297 FILLER_39_91
*1298 FILLER_3_105
*1299 FILLER_3_111
*1300 FILLER_3_113
*1301 FILLER_3_125
*1302 FILLER_3_137
*1303 FILLER_3_149
*1304 FILLER_3_161
*1305 FILLER_3_167
*1306 FILLER_3_169
*1307 FILLER_3_181
*1308 FILLER_3_19
*1309 FILLER_3_193
*1310 FILLER_3_205
*1311 FILLER_3_217
*1312 FILLER_3_223
*1313 FILLER_3_225
*1314 FILLER_3_237
*1315 FILLER_3_249
*1316 FILLER_3_261
*1317 FILLER_3_273
*1318 FILLER_3_279
*1319 FILLER_3_281
*1320 FILLER_3_293
*1321 FILLER_3_31
*1322 FILLER_3_50
*1323 FILLER_3_57
*1324 FILLER_3_69
*1325 FILLER_3_81
*1326 FILLER_3_93
*1327 FILLER_40_11
*1328 FILLER_40_111
*1329 FILLER_40_126
*1330 FILLER_40_138
*1331 FILLER_40_141
*1332 FILLER_40_153
*1333 FILLER_40_16
*1334 FILLER_40_165
*1335 FILLER_40_177
*1336 FILLER_40_189
*1337 FILLER_40_195
*1338 FILLER_40_197
*1339 FILLER_40_209
*1340 FILLER_40_221
*1341 FILLER_40_233
*1342 FILLER_40_245
*1343 FILLER_40_251
*1344 FILLER_40_253
*1345 FILLER_40_265
*1346 FILLER_40_277
*1347 FILLER_40_289
*1348 FILLER_40_29
*1349 FILLER_40_297
*1350 FILLER_40_3
*1351 FILLER_40_37
*1352 FILLER_40_42
*1353 FILLER_40_54
*1354 FILLER_40_66
*1355 FILLER_40_73
*1356 FILLER_40_81
*1357 FILLER_40_85
*1358 FILLER_40_97
*1359 FILLER_41_108
*1360 FILLER_41_113
*1361 FILLER_41_121
*1362 FILLER_41_129
*1363 FILLER_41_13
*1364 FILLER_41_137
*1365 FILLER_41_149
*1366 FILLER_41_161
*1367 FILLER_41_167
*1368 FILLER_41_169
*1369 FILLER_41_181
*1370 FILLER_41_193
*1371 FILLER_41_205
*1372 FILLER_41_21
*1373 FILLER_41_217
*1374 FILLER_41_223
*1375 FILLER_41_225
*1376 FILLER_41_237
*1377 FILLER_41_249
*1378 FILLER_41_261
*1379 FILLER_41_273
*1380 FILLER_41_279
*1381 FILLER_41_281
*1382 FILLER_41_29
*1383 FILLER_41_293
*1384 FILLER_41_3
*1385 FILLER_41_41
*1386 FILLER_41_53
*1387 FILLER_41_57
*1388 FILLER_41_74
*1389 FILLER_41_82
*1390 FILLER_41_94
*1391 FILLER_42_104
*1392 FILLER_42_115
*1393 FILLER_42_126
*1394 FILLER_42_138
*1395 FILLER_42_141
*1396 FILLER_42_15
*1397 FILLER_42_153
*1398 FILLER_42_165
*1399 FILLER_42_177
*1400 FILLER_42_189
*1401 FILLER_42_195
*1402 FILLER_42_197
*1403 FILLER_42_209
*1404 FILLER_42_221
*1405 FILLER_42_233
*1406 FILLER_42_245
*1407 FILLER_42_251
*1408 FILLER_42_253
*1409 FILLER_42_265
*1410 FILLER_42_27
*1411 FILLER_42_277
*1412 FILLER_42_289
*1413 FILLER_42_29
*1414 FILLER_42_297
*1415 FILLER_42_3
*1416 FILLER_42_41
*1417 FILLER_42_53
*1418 FILLER_42_65
*1419 FILLER_42_77
*1420 FILLER_42_83
*1421 FILLER_42_85
*1422 FILLER_42_92
*1423 FILLER_42_96
*1424 FILLER_43_104
*1425 FILLER_43_11
*1426 FILLER_43_113
*1427 FILLER_43_125
*1428 FILLER_43_137
*1429 FILLER_43_149
*1430 FILLER_43_15
*1431 FILLER_43_161
*1432 FILLER_43_167
*1433 FILLER_43_169
*1434 FILLER_43_181
*1435 FILLER_43_193
*1436 FILLER_43_205
*1437 FILLER_43_217
*1438 FILLER_43_223
*1439 FILLER_43_225
*1440 FILLER_43_237
*1441 FILLER_43_249
*1442 FILLER_43_261
*1443 FILLER_43_27
*1444 FILLER_43_273
*1445 FILLER_43_279
*1446 FILLER_43_281
*1447 FILLER_43_293
*1448 FILLER_43_3
*1449 FILLER_43_39
*1450 FILLER_43_51
*1451 FILLER_43_55
*1452 FILLER_43_60
*1453 FILLER_43_72
*1454 FILLER_43_80
*1455 FILLER_43_84
*1456 FILLER_43_89
*1457 FILLER_44_106
*1458 FILLER_44_110
*1459 FILLER_44_118
*1460 FILLER_44_13
*1461 FILLER_44_130
*1462 FILLER_44_138
*1463 FILLER_44_141
*1464 FILLER_44_153
*1465 FILLER_44_165
*1466 FILLER_44_177
*1467 FILLER_44_189
*1468 FILLER_44_195
*1469 FILLER_44_197
*1470 FILLER_44_209
*1471 FILLER_44_221
*1472 FILLER_44_233
*1473 FILLER_44_245
*1474 FILLER_44_25
*1475 FILLER_44_251
*1476 FILLER_44_253
*1477 FILLER_44_265
*1478 FILLER_44_277
*1479 FILLER_44_289
*1480 FILLER_44_29
*1481 FILLER_44_297
*1482 FILLER_44_3
*1483 FILLER_44_34
*1484 FILLER_44_46
*1485 FILLER_44_58
*1486 FILLER_44_64
*1487 FILLER_44_74
*1488 FILLER_44_82
*1489 FILLER_44_85
*1490 FILLER_44_93
*1491 FILLER_45_108
*1492 FILLER_45_120
*1493 FILLER_45_132
*1494 FILLER_45_144
*1495 FILLER_45_15
*1496 FILLER_45_156
*1497 FILLER_45_169
*1498 FILLER_45_181
*1499 FILLER_45_193
*1500 FILLER_45_205
*1501 FILLER_45_217
*1502 FILLER_45_223
*1503 FILLER_45_225
*1504 FILLER_45_237
*1505 FILLER_45_249
*1506 FILLER_45_261
*1507 FILLER_45_27
*1508 FILLER_45_273
*1509 FILLER_45_279
*1510 FILLER_45_281
*1511 FILLER_45_293
*1512 FILLER_45_3
*1513 FILLER_45_39
*1514 FILLER_45_51
*1515 FILLER_45_55
*1516 FILLER_45_57
*1517 FILLER_45_69
*1518 FILLER_45_76
*1519 FILLER_45_82
*1520 FILLER_45_86
*1521 FILLER_45_95
*1522 FILLER_46_105
*1523 FILLER_46_113
*1524 FILLER_46_121
*1525 FILLER_46_133
*1526 FILLER_46_139
*1527 FILLER_46_141
*1528 FILLER_46_15
*1529 FILLER_46_153
*1530 FILLER_46_165
*1531 FILLER_46_177
*1532 FILLER_46_189
*1533 FILLER_46_195
*1534 FILLER_46_197
*1535 FILLER_46_209
*1536 FILLER_46_221
*1537 FILLER_46_233
*1538 FILLER_46_245
*1539 FILLER_46_251
*1540 FILLER_46_253
*1541 FILLER_46_265
*1542 FILLER_46_27
*1543 FILLER_46_277
*1544 FILLER_46_289
*1545 FILLER_46_29
*1546 FILLER_46_297
*1547 FILLER_46_3
*1548 FILLER_46_41
*1549 FILLER_46_53
*1550 FILLER_46_65
*1551 FILLER_46_69
*1552 FILLER_46_73
*1553 FILLER_46_80
*1554 FILLER_46_85
*1555 FILLER_46_96
*1556 FILLER_47_107
*1557 FILLER_47_111
*1558 FILLER_47_113
*1559 FILLER_47_125
*1560 FILLER_47_137
*1561 FILLER_47_149
*1562 FILLER_47_15
*1563 FILLER_47_161
*1564 FILLER_47_167
*1565 FILLER_47_169
*1566 FILLER_47_181
*1567 FILLER_47_193
*1568 FILLER_47_205
*1569 FILLER_47_217
*1570 FILLER_47_223