*SPEF "ieee 1481-1999"
*DESIGN "moonbase_cpu_8bit"
*DATE "11:11:11 Fri 11 11, 1111"
*VENDOR "OpenRCX"
*PROGRAM "Parallel Extraction"
*VERSION "1.0"
*DESIGN_FLOW "NAME_SCOPE LOCAL" "PIN_CAP NONE"
*DIVIDER /
*DELIMITER :
*BUS_DELIMITER []
*T_UNIT 1 NS
*C_UNIT 1 PF
*R_UNIT 1 OHM
*L_UNIT 1 HENRY

*NAME_MAP
*1 io_in[0]
*2 io_in[1]
*3 io_in[2]
*4 io_in[3]
*5 io_in[4]
*6 io_in[5]
*7 io_in[6]
*8 io_in[7]
*9 io_out[0]
*10 io_out[1]
*11 io_out[2]
*12 io_out[3]
*13 io_out[4]
*14 io_out[5]
*15 io_out[6]
*16 io_out[7]
*19 _0000_
*20 _0001_
*21 _0002_
*22 _0003_
*23 _0004_
*24 _0005_
*25 _0006_
*26 _0007_
*27 _0008_
*28 _0009_
*29 _0010_
*30 _0011_
*31 _0012_
*32 _0013_
*33 _0014_
*34 _0015_
*35 _0016_
*36 _0017_
*37 _0018_
*38 _0019_
*39 _0020_
*40 _0021_
*41 _0022_
*42 _0023_
*43 _0024_
*44 _0025_
*45 _0026_
*46 _0027_
*47 _0028_
*48 _0029_
*49 _0030_
*50 _0031_
*51 _0032_
*52 _0033_
*53 _0034_
*54 _0035_
*55 _0036_
*56 _0037_
*57 _0038_
*58 _0039_
*59 _0040_
*60 _0041_
*61 _0042_
*62 _0043_
*63 _0044_
*64 _0045_
*65 _0046_
*66 _0047_
*67 _0048_
*68 _0049_
*69 _0050_
*70 _0051_
*71 _0052_
*72 _0053_
*73 _0054_
*74 _0055_
*75 _0056_
*76 _0057_
*77 _0058_
*78 _0059_
*79 _0060_
*80 _0061_
*81 _0062_
*82 _0063_
*83 _0064_
*84 _0065_
*85 _0066_
*86 _0067_
*87 _0068_
*88 _0069_
*89 _0070_
*90 _0071_
*91 _0072_
*92 _0073_
*93 _0074_
*94 _0075_
*95 _0076_
*96 _0077_
*97 _0078_
*98 _0079_
*99 _0080_
*100 _0081_
*101 _0082_
*102 _0083_
*103 _0084_
*104 _0085_
*105 _0086_
*106 _0087_
*107 _0088_
*108 _0089_
*109 _0090_
*110 _0091_
*111 _0092_
*112 _0093_
*113 _0094_
*114 _0095_
*115 _0096_
*116 _0097_
*117 _0098_
*118 _0099_
*119 _0100_
*120 _0101_
*121 _0102_
*122 _0103_
*123 _0104_
*124 _0105_
*125 _0106_
*126 _0107_
*127 _0108_
*128 _0109_
*129 _0110_
*130 _0111_
*131 _0112_
*132 _0113_
*133 _0114_
*134 _0115_
*135 _0116_
*136 _0117_
*137 _0118_
*138 _0119_
*139 _0120_
*140 _0121_
*141 _0122_
*142 _0123_
*143 _0124_
*144 _0125_
*145 _0126_
*146 _0127_
*147 _0128_
*148 _0129_
*149 _0130_
*150 _0131_
*151 _0132_
*152 _0133_
*153 _0134_
*154 _0135_
*155 _0136_
*156 _0137_
*157 _0138_
*158 _0139_
*159 _0140_
*160 _0141_
*161 _0142_
*162 _0143_
*163 _0144_
*164 _0145_
*165 _0146_
*166 _0147_
*167 _0148_
*168 _0149_
*169 _0150_
*170 _0151_
*171 _0152_
*172 _0153_
*173 _0154_
*174 _0155_
*175 _0156_
*176 _0157_
*177 _0158_
*178 _0159_
*179 _0160_
*180 _0161_
*181 _0162_
*182 _0163_
*183 _0164_
*184 _0165_
*185 _0166_
*186 _0167_
*187 _0168_
*188 _0169_
*189 _0170_
*190 _0171_
*191 _0172_
*192 _0173_
*193 _0174_
*194 _0175_
*195 _0176_
*196 _0177_
*197 _0178_
*198 _0179_
*199 _0180_
*200 _0181_
*201 _0182_
*202 _0183_
*203 _0184_
*204 _0185_
*205 _0186_
*206 _0187_
*207 _0188_
*208 _0189_
*209 _0190_
*210 _0191_
*211 _0192_
*212 _0193_
*213 _0194_
*214 _0195_
*215 _0196_
*216 _0197_
*217 _0198_
*218 _0199_
*219 _0200_
*220 _0201_
*221 _0202_
*222 _0203_
*223 _0204_
*224 _0205_
*225 _0206_
*226 _0207_
*227 _0208_
*228 _0209_
*229 _0210_
*230 _0211_
*231 _0212_
*232 _0213_
*233 _0214_
*234 _0215_
*235 _0216_
*236 _0217_
*237 _0218_
*238 _0219_
*239 _0220_
*240 _0221_
*241 _0222_
*242 _0223_
*243 _0224_
*244 _0225_
*245 _0226_
*246 _0227_
*247 _0228_
*248 _0229_
*249 _0230_
*250 _0231_
*251 _0232_
*252 _0233_
*253 _0234_
*254 _0235_
*255 _0236_
*256 _0237_
*257 _0238_
*258 _0239_
*259 _0240_
*260 _0241_
*261 _0242_
*262 _0243_
*263 _0244_
*264 _0245_
*265 _0246_
*266 _0247_
*267 _0248_
*268 _0249_
*269 _0250_
*270 _0251_
*271 _0252_
*272 _0253_
*273 _0254_
*274 _0255_
*275 _0256_
*276 _0257_
*277 _0258_
*278 _0259_
*279 _0260_
*280 _0261_
*281 _0262_
*282 _0263_
*283 _0264_
*284 _0265_
*285 _0266_
*286 _0267_
*287 _0268_
*288 _0269_
*289 _0270_
*290 _0271_
*291 _0272_
*292 _0273_
*293 _0274_
*294 _0275_
*295 _0276_
*296 _0277_
*297 _0278_
*298 _0279_
*299 _0280_
*300 _0281_
*301 _0282_
*302 _0283_
*303 _0284_
*304 _0285_
*305 _0286_
*306 _0287_
*307 _0288_
*308 _0289_
*309 _0290_
*310 _0291_
*311 _0292_
*312 _0293_
*313 _0294_
*314 _0295_
*315 _0296_
*316 _0297_
*317 _0298_
*318 _0299_
*319 _0300_
*320 _0301_
*321 _0302_
*322 _0303_
*323 _0304_
*324 _0305_
*325 _0306_
*326 _0307_
*327 _0308_
*328 _0309_
*329 _0310_
*330 _0311_
*331 _0312_
*332 _0313_
*333 _0314_
*334 _0315_
*335 _0316_
*336 _0317_
*337 _0318_
*338 _0319_
*339 _0320_
*340 _0321_
*341 _0322_
*342 _0323_
*343 _0324_
*344 _0325_
*345 _0326_
*346 _0327_
*347 _0328_
*348 _0329_
*349 _0330_
*350 _0331_
*351 _0332_
*352 _0333_
*353 _0334_
*354 _0335_
*355 _0336_
*356 _0337_
*357 _0338_
*358 _0339_
*359 _0340_
*360 _0341_
*361 _0342_
*362 _0343_
*363 _0344_
*364 _0345_
*365 _0346_
*366 _0347_
*367 _0348_
*368 _0349_
*369 _0350_
*370 _0351_
*371 _0352_
*372 _0353_
*373 _0354_
*374 _0355_
*375 _0356_
*376 _0357_
*377 _0358_
*378 _0359_
*379 _0360_
*380 _0361_
*381 _0362_
*382 _0363_
*383 _0364_
*384 _0365_
*385 _0366_
*386 _0367_
*387 _0368_
*388 _0369_
*389 _0370_
*390 _0371_
*391 _0372_
*392 _0373_
*393 _0374_
*394 _0375_
*395 _0376_
*396 _0377_
*397 _0378_
*398 _0379_
*399 _0380_
*400 _0381_
*401 _0382_
*402 _0383_
*403 _0384_
*404 _0385_
*405 _0386_
*406 _0387_
*407 _0388_
*408 _0389_
*409 _0390_
*410 _0391_
*411 _0392_
*412 _0393_
*413 _0394_
*414 _0395_
*415 _0396_
*416 _0397_
*417 _0398_
*418 _0399_
*419 _0400_
*420 _0401_
*421 _0402_
*422 _0403_
*423 _0404_
*424 _0405_
*425 _0406_
*426 _0407_
*427 _0408_
*428 _0409_
*429 _0410_
*430 _0411_
*431 _0412_
*432 _0413_
*433 _0414_
*434 _0415_
*435 _0416_
*436 _0417_
*437 _0418_
*438 _0419_
*439 _0420_
*440 _0421_
*441 _0422_
*442 _0423_
*443 _0424_
*444 _0425_
*445 _0426_
*446 _0427_
*447 _0428_
*448 _0429_
*449 _0430_
*450 _0431_
*451 _0432_
*452 _0433_
*453 _0434_
*454 _0435_
*455 _0436_
*456 _0437_
*457 _0438_
*458 _0439_
*459 _0440_
*460 _0441_
*461 _0442_
*462 _0443_
*463 _0444_
*464 _0445_
*465 _0446_
*466 _0447_
*467 _0448_
*468 _0449_
*469 _0450_
*470 _0451_
*471 _0452_
*472 _0453_
*473 _0454_
*474 _0455_
*475 _0456_
*476 _0457_
*477 _0458_
*478 _0459_
*479 _0460_
*480 _0461_
*481 _0462_
*482 _0463_
*483 _0464_
*484 _0465_
*485 _0466_
*486 _0467_
*487 _0468_
*488 _0469_
*489 _0470_
*490 _0471_
*491 _0472_
*492 _0473_
*493 _0474_
*494 _0475_
*495 _0476_
*496 _0477_
*497 _0478_
*498 _0479_
*499 _0480_
*500 _0481_
*501 _0482_
*502 _0483_
*503 _0484_
*504 _0485_
*505 _0486_
*506 _0487_
*507 _0488_
*508 _0489_
*509 _0490_
*510 _0491_
*511 _0492_
*512 _0493_
*513 _0494_
*514 _0495_
*515 _0496_
*516 _0497_
*517 _0498_
*518 _0499_
*519 _0500_
*520 _0501_
*521 _0502_
*522 _0503_
*523 _0504_
*524 _0505_
*525 _0506_
*526 _0507_
*527 _0508_
*528 _0509_
*529 _0510_
*530 _0511_
*531 _0512_
*532 _0513_
*533 _0514_
*534 _0515_
*535 _0516_
*536 _0517_
*537 _0518_
*538 _0519_
*539 _0520_
*540 _0521_
*541 _0522_
*542 _0523_
*543 _0524_
*544 _0525_
*545 _0526_
*546 _0527_
*547 _0528_
*548 _0529_
*549 _0530_
*550 _0531_
*551 _0532_
*552 _0533_
*553 _0534_
*554 _0535_
*555 _0536_
*556 _0537_
*557 _0538_
*558 _0539_
*559 _0540_
*560 _0541_
*561 _0542_
*562 _0543_
*563 _0544_
*564 _0545_
*565 _0546_
*566 _0547_
*567 _0548_
*568 _0549_
*569 _0550_
*570 _0551_
*571 _0552_
*572 _0553_
*573 _0554_
*574 _0555_
*575 _0556_
*576 _0557_
*577 _0558_
*578 _0559_
*579 _0560_
*580 _0561_
*581 _0562_
*582 _0563_
*583 _0564_
*584 _0565_
*585 _0566_
*586 _0567_
*587 _0568_
*588 _0569_
*589 _0570_
*590 _0571_
*591 _0572_
*592 _0573_
*593 _0574_
*594 _0575_
*595 _0576_
*596 _0577_
*597 _0578_
*598 _0579_
*599 _0580_
*600 _0581_
*601 _0582_
*602 _0583_
*603 _0584_
*604 _0585_
*605 _0586_
*606 _0587_
*607 _0588_
*608 _0589_
*609 _0590_
*610 _0591_
*611 _0592_
*612 _0593_
*613 _0594_
*614 _0595_
*615 _0596_
*616 _0597_
*617 _0598_
*618 _0599_
*619 _0600_
*620 _0601_
*621 _0602_
*622 _0603_
*623 _0604_
*624 _0605_
*625 _0606_
*626 _0607_
*627 _0608_
*628 _0609_
*629 _0610_
*630 _0611_
*631 _0612_
*632 _0613_
*633 _0614_
*634 _0615_
*635 _0616_
*636 _0617_
*637 _0618_
*638 _0619_
*639 _0620_
*640 _0621_
*641 _0622_
*642 _0623_
*643 _0624_
*644 _0625_
*645 _0626_
*646 _0627_
*647 _0628_
*648 _0629_
*649 _0630_
*650 _0631_
*651 _0632_
*652 _0633_
*653 _0634_
*654 _0635_
*655 _0636_
*656 _0637_
*657 _0638_
*658 _0639_
*659 _0640_
*660 _0641_
*661 _0642_
*662 _0643_
*663 _0644_
*664 _0645_
*665 _0646_
*666 _0647_
*667 _0648_
*668 _0649_
*669 _0650_
*670 _0651_
*671 _0652_
*672 _0653_
*673 _0654_
*674 _0655_
*675 _0656_
*676 _0657_
*677 _0658_
*678 _0659_
*679 _0660_
*680 _0661_
*681 _0662_
*682 _0663_
*683 _0664_
*684 _0665_
*685 _0666_
*686 _0667_
*687 _0668_
*688 _0669_
*689 _0670_
*690 _0671_
*691 _0672_
*692 _0673_
*693 _0674_
*694 _0675_
*695 _0676_
*696 _0677_
*697 _0678_
*698 _0679_
*699 _0680_
*700 _0681_
*701 _0682_
*702 _0683_
*703 _0684_
*704 _0685_
*705 _0686_
*706 _0687_
*707 _0688_
*708 _0689_
*709 _0690_
*710 _0691_
*711 _0692_
*712 _0693_
*713 _0694_
*714 _0695_
*715 _0696_
*716 _0697_
*717 _0698_
*718 _0699_
*719 _0700_
*720 _0701_
*721 _0702_
*722 _0703_
*723 _0704_
*724 _0705_
*725 _0706_
*726 _0707_
*727 _0708_
*728 _0709_
*729 _0710_
*730 _0711_
*731 _0712_
*732 _0713_
*733 _0714_
*734 _0715_
*735 _0716_
*736 _0717_
*737 _0718_
*738 _0719_
*739 _0720_
*740 _0721_
*741 _0722_
*742 _0723_
*743 _0724_
*744 _0725_
*745 _0726_
*746 _0727_
*747 _0728_
*748 _0729_
*749 _0730_
*750 _0731_
*751 _0732_
*752 _0733_
*753 _0734_
*754 _0735_
*755 _0736_
*756 _0737_
*757 _0738_
*758 _0739_
*759 _0740_
*760 _0741_
*761 _0742_
*762 _0743_
*763 _0744_
*764 _0745_
*765 _0746_
*766 _0747_
*767 _0748_
*768 _0749_
*769 _0750_
*770 _0751_
*771 _0752_
*772 _0753_
*773 _0754_
*774 _0755_
*775 _0756_
*776 _0757_
*777 _0758_
*778 _0759_
*779 _0760_
*780 _0761_
*781 _0762_
*782 _0763_
*783 _0764_
*784 _0765_
*785 _0766_
*786 _0767_
*787 _0768_
*788 _0769_
*789 _0770_
*790 _0771_
*791 _0772_
*792 _0773_
*793 _0774_
*794 _0775_
*795 _0776_
*796 _0777_
*797 _0778_
*798 _0779_
*799 _0780_
*800 _0781_
*801 _0782_
*802 _0783_
*803 _0784_
*804 _0785_
*805 _0786_
*806 _0787_
*807 _0788_
*808 _0789_
*809 _0790_
*810 _0791_
*811 _0792_
*812 _0793_
*813 _0794_
*814 _0795_
*815 _0796_
*816 _0797_
*817 _0798_
*818 _0799_
*819 _0800_
*820 _0801_
*821 _0802_
*822 _0803_
*823 _0804_
*824 _0805_
*825 _0806_
*826 _0807_
*827 _0808_
*828 _0809_
*829 _0810_
*830 _0811_
*831 _0812_
*832 _0813_
*833 _0814_
*834 _0815_
*835 _0816_
*836 _0817_
*837 _0818_
*838 _0819_
*839 _0820_
*840 _0821_
*841 _0822_
*842 _0823_
*843 _0824_
*844 _0825_
*845 _0826_
*846 _0827_
*847 _0828_
*848 _0829_
*849 _0830_
*850 _0831_
*851 _0832_
*852 _0833_
*853 _0834_
*854 _0835_
*855 _0836_
*856 _0837_
*857 _0838_
*858 _0839_
*859 _0840_
*860 _0841_
*861 _0842_
*862 _0843_
*863 _0844_
*864 _0845_
*865 _0846_
*866 _0847_
*867 _0848_
*868 _0849_
*869 _0850_
*870 _0851_
*871 _0852_
*872 _0853_
*873 _0854_
*874 _0855_
*875 _0856_
*876 _0857_
*877 _0858_
*878 _0859_
*879 _0860_
*880 _0861_
*881 _0862_
*882 _0863_
*883 _0864_
*884 _0865_
*885 _0866_
*886 _0867_
*887 _0868_
*888 _0869_
*889 _0870_
*890 _0871_
*891 _0872_
*892 _0873_
*893 _0874_
*894 _0875_
*895 _0876_
*896 _0877_
*897 _0878_
*898 _0879_
*899 _0880_
*900 _0881_
*901 _0882_
*902 _0883_
*903 _0884_
*904 _0885_
*905 _0886_
*906 _0887_
*907 _0888_
*908 _0889_
*909 _0890_
*910 _0891_
*911 _0892_
*912 _0893_
*913 _0894_
*914 _0895_
*915 _0896_
*916 _0897_
*917 _0898_
*918 _0899_
*919 _0900_
*920 _0901_
*921 _0902_
*922 _0903_
*923 _0904_
*924 _0905_
*925 _0906_
*926 _0907_
*927 _0908_
*928 _0909_
*929 _0910_
*930 _0911_
*931 _0912_
*932 _0913_
*933 _0914_
*934 _0915_
*935 _0916_
*936 _0917_
*937 _0918_
*938 _0919_
*939 _0920_
*940 _0921_
*941 _0922_
*942 _0923_
*943 _0924_
*944 _0925_
*945 _0926_
*946 _0927_
*947 _0928_
*948 _0929_
*949 _0930_
*950 _0931_
*951 _0932_
*952 _0933_
*953 _0934_
*954 _0935_
*955 _0936_
*956 _0937_
*957 _0938_
*958 _0939_
*959 _0940_
*960 _0941_
*961 _0942_
*962 _0943_
*963 _0944_
*964 _0945_
*965 _0946_
*966 _0947_
*967 _0948_
*968 _0949_
*969 _0950_
*970 _0951_
*971 _0952_
*972 _0953_
*973 _0954_
*974 _0955_
*975 _0956_
*976 _0957_
*977 _0958_
*978 _0959_
*979 _0960_
*980 _0961_
*981 _0962_
*982 _0963_
*983 _0964_
*984 _0965_
*985 _0966_
*986 _0967_
*987 _0968_
*988 _0969_
*989 _0970_
*990 _0971_
*991 _0972_
*992 _0973_
*993 _0974_
*994 _0975_
*995 _0976_
*996 _0977_
*997 _0978_
*998 _0979_
*999 _0980_
*1000 _0981_
*1001 _0982_
*1002 _0983_
*1003 _0984_
*1004 _0985_
*1005 _0986_
*1006 _0987_
*1007 _0988_
*1008 _0989_
*1009 _0990_
*1010 _0991_
*1011 _0992_
*1012 _0993_
*1013 _0994_
*1014 _0995_
*1015 _0996_
*1016 _0997_
*1017 _0998_
*1018 _0999_
*1019 _1000_
*1020 _1001_
*1021 _1002_
*1022 _1003_
*1023 _1004_
*1024 _1005_
*1025 _1006_
*1026 _1007_
*1027 _1008_
*1028 _1009_
*1029 _1010_
*1030 _1011_
*1031 _1012_
*1032 _1013_
*1033 _1014_
*1034 _1015_
*1035 _1016_
*1036 _1017_
*1037 _1018_
*1038 _1019_
*1039 _1020_
*1040 _1021_
*1041 _1022_
*1042 _1023_
*1043 _1024_
*1044 _1025_
*1045 _1026_
*1046 _1027_
*1047 _1028_
*1048 _1029_
*1049 _1030_
*1050 _1031_
*1051 _1032_
*1052 _1033_
*1053 _1034_
*1054 _1035_
*1055 _1036_
*1056 _1037_
*1057 _1038_
*1058 _1039_
*1059 _1040_
*1060 _1041_
*1061 _1042_
*1062 _1043_
*1063 _1044_
*1064 _1045_
*1065 _1046_
*1066 _1047_
*1067 _1048_
*1068 _1049_
*1069 clknet_0_io_in[0]
*1070 clknet_4_0_0_io_in[0]
*1071 clknet_4_10_0_io_in[0]
*1072 clknet_4_11_0_io_in[0]
*1073 clknet_4_12_0_io_in[0]
*1074 clknet_4_13_0_io_in[0]
*1075 clknet_4_14_0_io_in[0]
*1076 clknet_4_15_0_io_in[0]
*1077 clknet_4_1_0_io_in[0]
*1078 clknet_4_2_0_io_in[0]
*1079 clknet_4_3_0_io_in[0]
*1080 clknet_4_4_0_io_in[0]
*1081 clknet_4_5_0_io_in[0]
*1082 clknet_4_6_0_io_in[0]
*1083 clknet_4_7_0_io_in[0]
*1084 clknet_4_8_0_io_in[0]
*1085 clknet_4_9_0_io_in[0]
*1086 net1
*1087 net2
*1088 net3
*1089 net4
*1090 net5
*1091 net6
*1092 net7
*1093 nibble
*1094 r_a\[0\]
*1095 r_a\[1\]
*1096 r_a\[2\]
*1097 r_a\[3\]
*1098 r_a\[4\]
*1099 r_a\[5\]
*1100 r_a\[6\]
*1101 r_a\[7\]
*1102 r_b\[0\]
*1103 r_b\[1\]
*1104 r_b\[2\]
*1105 r_b\[3\]
*1106 r_b\[4\]
*1107 r_b\[5\]
*1108 r_b\[6\]
*1109 r_b\[7\]
*1110 r_c
*1111 r_ee\[0\]
*1112 r_ee\[1\]
*1113 r_ee\[2\]
*1114 r_ee\[3\]
*1115 r_ee\[4\]
*1116 r_h\[0\]
*1117 r_h\[1\]
*1118 r_h\[2\]
*1119 r_h\[3\]
*1120 r_ins\[0\]
*1121 r_ins\[1\]
*1122 r_ins\[2\]
*1123 r_ins\[3\]
*1124 r_l\[0\]
*1125 r_l\[1\]
*1126 r_l\[2\]
*1127 r_l\[3\]
*1128 r_local_ram\[0\]\[0\]
*1129 r_local_ram\[0\]\[1\]
*1130 r_local_ram\[0\]\[2\]
*1131 r_local_ram\[0\]\[3\]
*1132 r_local_ram\[0\]\[4\]
*1133 r_local_ram\[0\]\[5\]
*1134 r_local_ram\[0\]\[6\]
*1135 r_local_ram\[0\]\[7\]
*1136 r_local_ram\[1\]\[0\]
*1137 r_local_ram\[1\]\[1\]
*1138 r_local_ram\[1\]\[2\]
*1139 r_local_ram\[1\]\[3\]
*1140 r_local_ram\[1\]\[4\]
*1141 r_local_ram\[1\]\[5\]
*1142 r_local_ram\[1\]\[6\]
*1143 r_local_ram\[1\]\[7\]
*1144 r_local_ram\[2\]\[0\]
*1145 r_local_ram\[2\]\[1\]
*1146 r_local_ram\[2\]\[2\]
*1147 r_local_ram\[2\]\[3\]
*1148 r_local_ram\[2\]\[4\]
*1149 r_local_ram\[2\]\[5\]
*1150 r_local_ram\[2\]\[6\]
*1151 r_local_ram\[2\]\[7\]
*1152 r_local_ram\[3\]\[0\]
*1153 r_local_ram\[3\]\[1\]
*1154 r_local_ram\[3\]\[2\]
*1155 r_local_ram\[3\]\[3\]
*1156 r_local_ram\[3\]\[4\]
*1157 r_local_ram\[3\]\[5\]
*1158 r_local_ram\[3\]\[6\]
*1159 r_local_ram\[3\]\[7\]
*1160 r_pc\[0\]
*1161 r_pc\[10\]
*1162 r_pc\[11\]
*1163 r_pc\[1\]
*1164 r_pc\[2\]
*1165 r_pc\[3\]
*1166 r_pc\[4\]
*1167 r_pc\[5\]
*1168 r_pc\[6\]
*1169 r_pc\[7\]
*1170 r_pc\[8\]
*1171 r_pc\[9\]
*1172 r_phase\[0\]
*1173 r_phase\[10\]
*1174 r_phase\[11\]
*1175 r_phase\[12\]
*1176 r_phase\[13\]
*1177 r_phase\[14\]
*1178 r_phase\[15\]
*1179 r_phase\[1\]
*1180 r_phase\[2\]
*1181 r_phase\[3\]
*1182 r_phase\[4\]
*1183 r_phase\[5\]
*1184 r_phase\[6\]
*1185 r_phase\[7\]
*1186 r_phase\[8\]
*1187 r_phase\[9\]
*1188 r_s0\[0\]
*1189 r_s0\[10\]
*1190 r_s0\[11\]
*1191 r_s0\[1\]
*1192 r_s0\[2\]
*1193 r_s0\[3\]
*1194 r_s0\[4\]
*1195 r_s0\[5\]
*1196 r_s0\[6\]
*1197 r_s0\[7\]
*1198 r_s0\[8\]
*1199 r_s0\[9\]
*1200 r_s1\[0\]
*1201 r_s1\[10\]
*1202 r_s1\[11\]
*1203 r_s1\[1\]
*1204 r_s1\[2\]
*1205 r_s1\[3\]
*1206 r_s1\[4\]
*1207 r_s1\[5\]
*1208 r_s1\[6\]
*1209 r_s1\[7\]
*1210 r_s1\[8\]
*1211 r_s1\[9\]
*1212 r_v\[0\]
*1213 r_v\[1\]
*1214 r_v\[2\]
*1215 r_v\[3\]
*1216 r_x\[0\]
*1217 r_x\[10\]
*1218 r_x\[11\]
*1219 r_x\[12\]
*1220 r_x\[1\]
*1221 r_x\[2\]
*1222 r_x\[3\]
*1223 r_x\[4\]
*1224 r_x\[5\]
*1225 r_x\[6\]
*1226 r_x\[7\]
*1227 r_x\[8\]
*1228 r_x\[9\]
*1229 r_y\[0\]
*1230 r_y\[10\]
*1231 r_y\[11\]
*1232 r_y\[12\]
*1233 r_y\[1\]
*1234 r_y\[2\]
*1235 r_y\[3\]
*1236 r_y\[4\]
*1237 r_y\[5\]
*1238 r_y\[6\]
*1239 r_y\[7\]
*1240 r_y\[8\]
*1241 r_y\[9\]
*1242 strobe_out
*1243 ANTENNA_0
*1244 ANTENNA_1
*1245 ANTENNA_2
*1246 FILLER_0_101
*1247 FILLER_0_108
*1248 FILLER_0_129
*1249 FILLER_0_136
*1250 FILLER_0_141
*1251 FILLER_0_145
*1252 FILLER_0_157
*1253 FILLER_0_165
*1254 FILLER_0_169
*1255 FILLER_0_177
*1256 FILLER_0_185
*1257 FILLER_0_192
*1258 FILLER_0_197
*1259 FILLER_0_203
*1260 FILLER_0_21
*1261 FILLER_0_210
*1262 FILLER_0_217
*1263 FILLER_0_223
*1264 FILLER_0_231
*1265 FILLER_0_237
*1266 FILLER_0_241
*1267 FILLER_0_248
*1268 FILLER_0_253
*1269 FILLER_0_261
*1270 FILLER_0_268
*1271 FILLER_0_27
*1272 FILLER_0_275
*1273 FILLER_0_279
*1274 FILLER_0_281
*1275 FILLER_0_285
*1276 FILLER_0_292
*1277 FILLER_0_298
*1278 FILLER_0_3
*1279 FILLER_0_32
*1280 FILLER_0_44
*1281 FILLER_0_49
*1282 FILLER_0_55
*1283 FILLER_0_57
*1284 FILLER_0_69
*1285 FILLER_0_78
*1286 FILLER_0_94
*1287 FILLER_10_102
*1288 FILLER_10_11
*1289 FILLER_10_110
*1290 FILLER_10_121
*1291 FILLER_10_136
*1292 FILLER_10_150
*1293 FILLER_10_166
*1294 FILLER_10_173
*1295 FILLER_10_185
*1296 FILLER_10_192
*1297 FILLER_10_197
*1298 FILLER_10_205
*1299 FILLER_10_213
*1300 FILLER_10_221
*1301 FILLER_10_231
*1302 FILLER_10_24
*1303 FILLER_10_244
*1304 FILLER_10_253
*1305 FILLER_10_261
*1306 FILLER_10_269
*1307 FILLER_10_277
*1308 FILLER_10_29
*1309 FILLER_10_295
*1310 FILLER_10_3
*1311 FILLER_10_41
*1312 FILLER_10_61
*1313 FILLER_10_67
*1314 FILLER_10_7
*1315 FILLER_10_74
*1316 FILLER_10_82
*1317 FILLER_10_85
*1318 FILLER_11_108
*1319 FILLER_11_118
*1320 FILLER_11_123
*1321 FILLER_11_135
*1322 FILLER_11_139
*1323 FILLER_11_156
*1324 FILLER_11_160
*1325 FILLER_11_164
*1326 FILLER_11_174
*1327 FILLER_11_186
*1328 FILLER_11_194
*1329 FILLER_11_198
*1330 FILLER_11_207
*1331 FILLER_11_21
*1332 FILLER_11_218
*1333 FILLER_11_228
*1334 FILLER_11_239
*1335 FILLER_11_246
*1336 FILLER_11_254
*1337 FILLER_11_260
*1338 FILLER_11_269
*1339 FILLER_11_276
*1340 FILLER_11_281
*1341 FILLER_11_291
*1342 FILLER_11_3
*1343 FILLER_11_46
*1344 FILLER_11_54
*1345 FILLER_11_60
*1346 FILLER_11_67
*1347 FILLER_11_74
*1348 FILLER_11_85
*1349 FILLER_11_94
*1350 FILLER_11_98
*1351 FILLER_12_100
*1352 FILLER_12_106
*1353 FILLER_12_112
*1354 FILLER_12_125
*1355 FILLER_12_13
*1356 FILLER_12_136
*1357 FILLER_12_141
*1358 FILLER_12_150
*1359 FILLER_12_158
*1360 FILLER_12_173
*1361 FILLER_12_181
*1362 FILLER_12_192
*1363 FILLER_12_20
*1364 FILLER_12_204
*1365 FILLER_12_215
*1366 FILLER_12_229
*1367 FILLER_12_243
*1368 FILLER_12_251
*1369 FILLER_12_258
*1370 FILLER_12_264
*1371 FILLER_12_270
*1372 FILLER_12_278
*1373 FILLER_12_295
*1374 FILLER_12_38
*1375 FILLER_12_55
*1376 FILLER_12_70
*1377 FILLER_12_74
*1378 FILLER_12_80
*1379 FILLER_12_85
*1380 FILLER_13_103
*1381 FILLER_13_111
*1382 FILLER_13_120
*1383 FILLER_13_131
*1384 FILLER_13_139
*1385 FILLER_13_149
*1386 FILLER_13_160
*1387 FILLER_13_177
*1388 FILLER_13_18
*1389 FILLER_13_187
*1390 FILLER_13_204
*1391 FILLER_13_215
*1392 FILLER_13_223
*1393 FILLER_13_231
*1394 FILLER_13_239
*1395 FILLER_13_248
*1396 FILLER_13_258
*1397 FILLER_13_265
*1398 FILLER_13_273
*1399 FILLER_13_279
*1400 FILLER_13_290
*1401 FILLER_13_298
*1402 FILLER_13_3
*1403 FILLER_13_38
*1404 FILLER_13_45
*1405 FILLER_13_52
*1406 FILLER_13_73
*1407 FILLER_13_84
*1408 FILLER_13_90
*1409 FILLER_13_95
*1410 FILLER_14_107
*1411 FILLER_14_123
*1412 FILLER_14_135
*1413 FILLER_14_139
*1414 FILLER_14_150
*1415 FILLER_14_158
*1416 FILLER_14_165
*1417 FILLER_14_171
*1418 FILLER_14_177
*1419 FILLER_14_187
*1420 FILLER_14_19
*1421 FILLER_14_195
*1422 FILLER_14_204
*1423 FILLER_14_210
*1424 FILLER_14_218
*1425 FILLER_14_228
*1426 FILLER_14_237
*1427 FILLER_14_246
*1428 FILLER_14_260
*1429 FILLER_14_27
*1430 FILLER_14_271
*1431 FILLER_14_295
*1432 FILLER_14_32
*1433 FILLER_14_54
*1434 FILLER_14_58
*1435 FILLER_14_62
*1436 FILLER_14_77
*1437 FILLER_14_83
*1438 FILLER_14_85
*1439 FILLER_15_106
*1440 FILLER_15_113
*1441 FILLER_15_129
*1442 FILLER_15_13
*1443 FILLER_15_137
*1444 FILLER_15_155
*1445 FILLER_15_159
*1446 FILLER_15_164
*1447 FILLER_15_173
*1448 FILLER_15_199
*1449 FILLER_15_20
*1450 FILLER_15_206
*1451 FILLER_15_217
*1452 FILLER_15_223
*1453 FILLER_15_231
*1454 FILLER_15_247
*1455 FILLER_15_256
*1456 FILLER_15_260
*1457 FILLER_15_271
*1458 FILLER_15_279
*1459 FILLER_15_285
*1460 FILLER_15_292
*1461 FILLER_15_298
*1462 FILLER_15_32
*1463 FILLER_15_39
*1464 FILLER_15_52
*1465 FILLER_15_57
*1466 FILLER_15_61
*1467 FILLER_15_65
*1468 FILLER_15_78
*1469 FILLER_15_93
*1470 FILLER_16_106
*1471 FILLER_16_118
*1472 FILLER_16_125
*1473 FILLER_16_129
*1474 FILLER_16_135
*1475 FILLER_16_139
*1476 FILLER_16_141
*1477 FILLER_16_153
*1478 FILLER_16_167
*1479 FILLER_16_178
*1480 FILLER_16_184
*1481 FILLER_16_192
*1482 FILLER_16_205
*1483 FILLER_16_211
*1484 FILLER_16_220
*1485 FILLER_16_23
*1486 FILLER_16_230
*1487 FILLER_16_234
*1488 FILLER_16_242
*1489 FILLER_16_250
*1490 FILLER_16_261
*1491 FILLER_16_27
*1492 FILLER_16_271
*1493 FILLER_16_284
*1494 FILLER_16_29
*1495 FILLER_16_293
*1496 FILLER_16_3
*1497 FILLER_16_41
*1498 FILLER_16_50
*1499 FILLER_16_75
*1500 FILLER_16_83
*1501 FILLER_16_85
*1502 FILLER_16_89
*1503 FILLER_17_100
*1504 FILLER_17_108
*1505 FILLER_17_119
*1506 FILLER_17_123
*1507 FILLER_17_129
*1508 FILLER_17_138
*1509 FILLER_17_145
*1510 FILLER_17_155
*1511 FILLER_17_159
*1512 FILLER_17_164
*1513 FILLER_17_169
*1514 FILLER_17_173
*1515 FILLER_17_18
*1516 FILLER_17_183
*1517 FILLER_17_191
*1518 FILLER_17_202
*1519 FILLER_17_209
*1520 FILLER_17_215
*1521 FILLER_17_220
*1522 FILLER_17_229
*1523 FILLER_17_237
*1524 FILLER_17_250
*1525 FILLER_17_257
*1526 FILLER_17_270
*1527 FILLER_17_278
*1528 FILLER_17_281
*1529 FILLER_17_289
*1530 FILLER_17_297
*1531 FILLER_17_3
*1532 FILLER_17_43
*1533 FILLER_17_52
*1534 FILLER_17_66
*1535 FILLER_17_72
*1536 FILLER_17_80
*1537 FILLER_17_88
*1538 FILLER_17_93
*1539 FILLER_18_108
*1540 FILLER_18_115
*1541 FILLER_18_123
*1542 FILLER_18_133
*1543 FILLER_18_139
*1544 FILLER_18_141
*1545 FILLER_18_160
*1546 FILLER_18_171
*1547 FILLER_18_179
*1548 FILLER_18_190
*1549 FILLER_18_202
*1550 FILLER_18_21
*1551 FILLER_18_218
*1552 FILLER_18_226
*1553 FILLER_18_237
*1554 FILLER_18_248
*1555 FILLER_18_253
*1556 FILLER_18_265
*1557 FILLER_18_27
*1558 FILLER_18_271
*1559 FILLER_18_275
*1560 FILLER_18_295
*1561 FILLER_18_3
*1562 FILLER_18_32
*1563 FILLER_18_54
*1564 FILLER_18_58
*1565 FILLER_18_65
*1566 FILLER_18_78
*1567 FILLER_18_8
*1568 FILLER_18_88
*1569 FILLER_19_108
*1570 FILLER_19_113
*1571 FILLER_19_118
*1572 FILLER_19_126
*1573 FILLER_19_132
*1574 FILLER_19_136
*1575 FILLER_19_146
*1576 FILLER_19_152
*1577 FILLER_19_163
*1578 FILLER_19_167
*1579 FILLER_19_185
*1580 FILLER_19_19
*1581 FILLER_19_193
*1582 FILLER_19_207
*1583 FILLER_19_219
*1584 FILLER_19_223
*1585 FILLER_19_231
*1586 FILLER_19_249
*1587 FILLER_19_256
*1588 FILLER_19_27
*1589 FILLER_19_276
*1590 FILLER_19_290
*1591 FILLER_19_298
*1592 FILLER_19_31
*1593 FILLER_19_44
*1594 FILLER_19_48
*1595 FILLER_19_52
*1596 FILLER_19_73
*1597 FILLER_19_81
*1598 FILLER_19_85
*1599 FILLER_19_95
*1600 FILLER_1_105
*1601 FILLER_1_111
*1602 FILLER_1_113
*1603 FILLER_1_119
*1604 FILLER_1_12
*1605 FILLER_1_139
*1606 FILLER_1_161
*1607 FILLER_1_167
*1608 FILLER_1_185
*1609 FILLER_1_192
*1610 FILLER_1_200
*1611 FILLER_1_206
*1612 FILLER_1_220
*1613 FILLER_1_232
*1614 FILLER_1_240
*1615 FILLER_1_251
*1616 FILLER_1_271
*1617 FILLER_1_279
*1618 FILLER_1_291
*1619 FILLER_1_3
*1620 FILLER_1_32
*1621 FILLER_1_52
*1622 FILLER_1_57
*1623 FILLER_1_62
*1624 FILLER_1_68
*1625 FILLER_1_85
*1626 FILLER_20_109
*1627 FILLER_20_120
*1628 FILLER_20_127
*1629 FILLER_20_13
*1630 FILLER_20_135
*1631 FILLER_20_139
*1632 FILLER_20_141
*1633 FILLER_20_150
*1634 FILLER_20_164
*1635 FILLER_20_174
*1636 FILLER_20_182
*1637 FILLER_20_192
*1638 FILLER_20_20
*1639 FILLER_20_200
*1640 FILLER_20_215
*1641 FILLER_20_227
*1642 FILLER_20_237
*1643 FILLER_20_248
*1644 FILLER_20_263
*1645 FILLER_20_271
*1646 FILLER_20_295
*1647 FILLER_20_45
*1648 FILLER_20_52
*1649 FILLER_20_65
*1650 FILLER_20_80
*1651 FILLER_20_85
*1652 FILLER_20_89
*1653 FILLER_21_100
*1654 FILLER_21_107
*1655 FILLER_21_111
*1656 FILLER_21_116
*1657 FILLER_21_129
*1658 FILLER_21_142
*1659 FILLER_21_149
*1660 FILLER_21_164
*1661 FILLER_21_178
*1662 FILLER_21_194
*1663 FILLER_21_205
*1664 FILLER_21_218
*1665 FILLER_21_225
*1666 FILLER_21_229
*1667 FILLER_21_237
*1668 FILLER_21_245
*1669 FILLER_21_25
*1670 FILLER_21_254
*1671 FILLER_21_264
*1672 FILLER_21_268
*1673 FILLER_21_273
*1674 FILLER_21_279
*1675 FILLER_21_281
*1676 FILLER_21_291
*1677 FILLER_21_3
*1678 FILLER_21_38
*1679 FILLER_21_42
*1680 FILLER_21_48
*1681 FILLER_21_60
*1682 FILLER_21_70
*1683 FILLER_21_90
*1684 FILLER_22_103
*1685 FILLER_22_123
*1686 FILLER_22_131
*1687 FILLER_22_139
*1688 FILLER_22_14
*1689 FILLER_22_157
*1690 FILLER_22_161
*1691 FILLER_22_178
*1692 FILLER_22_182
*1693 FILLER_22_190
*1694 FILLER_22_21
*1695 FILLER_22_213
*1696 FILLER_22_227
*1697 FILLER_22_235
*1698 FILLER_22_240
*1699 FILLER_22_247
*1700 FILLER_22_251
*1701 FILLER_22_253
*1702 FILLER_22_263
*1703 FILLER_22_27
*1704 FILLER_22_272
*1705 FILLER_22_281
*1706 FILLER_22_288
*1707 FILLER_22_29
*1708 FILLER_22_295
*1709 FILLER_22_34
*1710 FILLER_22_41
*1711 FILLER_22_6
*1712 FILLER_22_61
*1713 FILLER_22_76
*1714 FILLER_22_90
*1715 FILLER_23_101
*1716 FILLER_23_108
*1717 FILLER_23_122
*1718 FILLER_23_128
*1719 FILLER_23_132
*1720 FILLER_23_139
*1721 FILLER_23_152
*1722 FILLER_23_164
*1723 FILLER_23_173
*1724 FILLER_23_183
*1725 FILLER_23_19
*1726 FILLER_23_192
*1727 FILLER_23_200
*1728 FILLER_23_208
*1729 FILLER_23_220
*1730 FILLER_23_230
*1731 FILLER_23_254
*1732 FILLER_23_26
*1733 FILLER_23_261
*1734 FILLER_23_267
*1735 FILLER_23_276
*1736 FILLER_23_284
*1737 FILLER_23_288
*1738 FILLER_23_292
*1739 FILLER_23_298
*1740 FILLER_23_30
*1741 FILLER_23_47
*1742 FILLER_23_55
*1743 FILLER_23_74
*1744 FILLER_23_83
*1745 FILLER_23_89
*1746 FILLER_24_106
*1747 FILLER_24_123
*1748 FILLER_24_13
*1749 FILLER_24_132
*1750 FILLER_24_151
*1751 FILLER_24_164
*1752 FILLER_24_171
*1753 FILLER_24_181
*1754 FILLER_24_185
*1755 FILLER_24_191
*1756 FILLER_24_195
*1757 FILLER_24_201
*1758 FILLER_24_209
*1759 FILLER_24_221
*1760 FILLER_24_24
*1761 FILLER_24_241
*1762 FILLER_24_248
*1763 FILLER_24_260
*1764 FILLER_24_267
*1765 FILLER_24_280
*1766 FILLER_24_286
*1767 FILLER_24_294
*1768 FILLER_24_298
*1769 FILLER_24_3
*1770 FILLER_24_45
*1771 FILLER_24_56
*1772 FILLER_24_66
*1773 FILLER_24_7
*1774 FILLER_24_80
*1775 FILLER_24_85
*1776 FILLER_24_89
*1777 FILLER_25_10
*1778 FILLER_25_107
*1779 FILLER_25_111
*1780 FILLER_25_113
*1781 FILLER_25_132
*1782 FILLER_25_141
*1783 FILLER_25_147
*1784 FILLER_25_164
*1785 FILLER_25_169
*1786 FILLER_25_173
*1787 FILLER_25_184
*1788 FILLER_25_196
*1789 FILLER_25_205
*1790 FILLER_25_216
*1791 FILLER_25_225
*1792 FILLER_25_238
*1793 FILLER_25_245
*1794 FILLER_25_257
*1795 FILLER_25_268
*1796 FILLER_25_276
*1797 FILLER_25_289
*1798 FILLER_25_297
*1799 FILLER_25_3
*1800 FILLER_25_30
*1801 FILLER_25_42
*1802 FILLER_25_52
*1803 FILLER_25_57
*1804 FILLER_25_69
*1805 FILLER_25_86
*1806 FILLER_25_96
*1807 FILLER_26_103
*1808 FILLER_26_110
*1809 FILLER_26_118
*1810 FILLER_26_129
*1811 FILLER_26_136
*1812 FILLER_26_151
*1813 FILLER_26_159
*1814 FILLER_26_165
*1815 FILLER_26_174
*1816 FILLER_26_182
*1817 FILLER_26_19
*1818 FILLER_26_192
*1819 FILLER_26_197
*1820 FILLER_26_205
*1821 FILLER_26_216
*1822 FILLER_26_220
*1823 FILLER_26_226
*1824 FILLER_26_233
*1825 FILLER_26_246
*1826 FILLER_26_253
*1827 FILLER_26_261
*1828 FILLER_26_27
*1829 FILLER_26_271
*1830 FILLER_26_286
*1831 FILLER_26_29
*1832 FILLER_26_295
*1833 FILLER_26_3
*1834 FILLER_26_40
*1835 FILLER_26_50
*1836 FILLER_26_59
*1837 FILLER_26_68
*1838 FILLER_26_77
*1839 FILLER_26_8
*1840 FILLER_26_83
*1841 FILLER_26_93
*1842 FILLER_26_97
*1843 FILLER_27_105
*1844 FILLER_27_111
*1845 FILLER_27_116
*1846 FILLER_27_124
*1847 FILLER_27_130
*1848 FILLER_27_140
*1849 FILLER_27_160
*1850 FILLER_27_179
*1851 FILLER_27_19
*1852 FILLER_27_197
*1853 FILLER_27_205
*1854 FILLER_27_213
*1855 FILLER_27_220
*1856 FILLER_27_229
*1857 FILLER_27_233
*1858 FILLER_27_242
*1859 FILLER_27_25
*1860 FILLER_27_250
*1861 FILLER_27_261
*1862 FILLER_27_269
*1863 FILLER_27_276
*1864 FILLER_27_281
*1865 FILLER_27_290
*1866 FILLER_27_298
*1867 FILLER_27_42
*1868 FILLER_27_50
*1869 FILLER_27_64
*1870 FILLER_27_74
*1871 FILLER_27_85
*1872 FILLER_27_96
*1873 FILLER_28_10
*1874 FILLER_28_102
*1875 FILLER_28_109
*1876 FILLER_28_122
*1877 FILLER_28_126
*1878 FILLER_28_132
*1879 FILLER_28_144
*1880 FILLER_28_148
*1881 FILLER_28_169
*1882 FILLER_28_17
*1883 FILLER_28_186
*1884 FILLER_28_194
*1885 FILLER_28_206
*1886 FILLER_28_217
*1887 FILLER_28_230
*1888 FILLER_28_238
*1889 FILLER_28_24
*1890 FILLER_28_248
*1891 FILLER_28_261
*1892 FILLER_28_275
*1893 FILLER_28_293
*1894 FILLER_28_3
*1895 FILLER_28_34
*1896 FILLER_28_40
*1897 FILLER_28_49
*1898 FILLER_28_55
*1899 FILLER_28_66
*1900 FILLER_28_72
*1901 FILLER_28_80
*1902 FILLER_28_90
*1903 FILLER_28_98
*1904 FILLER_29_102
*1905 FILLER_29_110
*1906 FILLER_29_129
*1907 FILLER_29_138
*1908 FILLER_29_14
*1909 FILLER_29_146
*1910 FILLER_29_154
*1911 FILLER_29_160
*1912 FILLER_29_169
*1913 FILLER_29_185
*1914 FILLER_29_199
*1915 FILLER_29_212
*1916 FILLER_29_220
*1917 FILLER_29_225
*1918 FILLER_29_235
*1919 FILLER_29_246
*1920 FILLER_29_254
*1921 FILLER_29_261
*1922 FILLER_29_265
*1923 FILLER_29_276
*1924 FILLER_29_281
*1925 FILLER_29_292
*1926 FILLER_29_298
*1927 FILLER_29_32
*1928 FILLER_29_40
*1929 FILLER_29_46
*1930 FILLER_29_54
*1931 FILLER_29_6
*1932 FILLER_29_60
*1933 FILLER_29_74
*1934 FILLER_29_81
*1935 FILLER_29_85