*SPEF "ieee 1481-1999"
*DESIGN "moonbase_cpu_4bit"
*DATE "11:11:11 Fri 11 11, 1111"
*VENDOR "OpenRCX"
*PROGRAM "Parallel Extraction"
*VERSION "1.0"
*DESIGN_FLOW "NAME_SCOPE LOCAL" "PIN_CAP NONE"
*DIVIDER /
*DELIMITER :
*BUS_DELIMITER []
*T_UNIT 1 NS
*C_UNIT 1 PF
*R_UNIT 1 OHM
*L_UNIT 1 HENRY

*NAME_MAP
*1 io_in[0]
*2 io_in[1]
*3 io_in[2]
*4 io_in[3]
*5 io_in[4]
*6 io_in[5]
*7 io_in[6]
*8 io_in[7]
*9 io_out[0]
*10 io_out[1]
*11 io_out[2]
*12 io_out[3]
*13 io_out[4]
*14 io_out[5]
*15 io_out[6]
*16 io_out[7]
*19 _0000_
*20 _0001_
*21 _0002_
*22 _0003_
*23 _0004_
*24 _0005_
*25 _0006_
*26 _0007_
*27 _0008_
*28 _0009_
*29 _0010_
*30 _0011_
*31 _0012_
*32 _0013_
*33 _0014_
*34 _0015_
*35 _0016_
*36 _0017_
*37 _0018_
*38 _0019_
*39 _0020_
*40 _0021_
*41 _0022_
*42 _0023_
*43 _0024_
*44 _0025_
*45 _0026_
*46 _0027_
*47 _0028_
*48 _0029_
*49 _0030_
*50 _0031_
*51 _0032_
*52 _0033_
*53 _0034_
*54 _0035_
*55 _0036_
*56 _0037_
*57 _0038_
*58 _0039_
*59 _0040_
*60 _0041_
*61 _0042_
*62 _0043_
*63 _0044_
*64 _0045_
*65 _0046_
*66 _0047_
*67 _0048_
*68 _0049_
*69 _0050_
*70 _0051_
*71 _0052_
*72 _0053_
*73 _0054_
*74 _0055_
*75 _0056_
*76 _0057_
*77 _0058_
*78 _0059_
*79 _0060_
*80 _0061_
*81 _0062_
*82 _0063_
*83 _0064_
*84 _0065_
*85 _0066_
*86 _0067_
*87 _0068_
*88 _0069_
*89 _0070_
*90 _0071_
*91 _0072_
*92 _0073_
*93 _0074_
*94 _0075_
*95 _0076_
*96 _0077_
*97 _0078_
*98 _0079_
*99 _0080_
*100 _0081_
*101 _0082_
*102 _0083_
*103 _0084_
*104 _0085_
*105 _0086_
*106 _0087_
*107 _0088_
*108 _0089_
*109 _0090_
*110 _0091_
*111 _0092_
*112 _0093_
*113 _0094_
*114 _0095_
*115 _0096_
*116 _0097_
*117 _0098_
*118 _0099_
*119 _0100_
*120 _0101_
*121 _0102_
*122 _0103_
*123 _0104_
*124 _0105_
*125 _0106_
*126 _0107_
*127 _0108_
*128 _0109_
*129 _0110_
*130 _0111_
*131 _0112_
*132 _0113_
*133 _0114_
*134 _0115_
*135 _0116_
*136 _0117_
*137 _0118_
*138 _0119_
*139 _0120_
*140 _0121_
*141 _0122_
*142 _0123_
*143 _0124_
*144 _0125_
*145 _0126_
*146 _0127_
*147 _0128_
*148 _0129_
*149 _0130_
*150 _0131_
*151 _0132_
*152 _0133_
*153 _0134_
*154 _0135_
*155 _0136_
*156 _0137_
*157 _0138_
*158 _0139_
*159 _0140_
*160 _0141_
*161 _0142_
*162 _0143_
*163 _0144_
*164 _0145_
*165 _0146_
*166 _0147_
*167 _0148_
*168 _0149_
*169 _0150_
*170 _0151_
*171 _0152_
*172 _0153_
*173 _0154_
*174 _0155_
*175 _0156_
*176 _0157_
*177 _0158_
*178 _0159_
*179 _0160_
*180 _0161_
*181 _0162_
*182 _0163_
*183 _0164_
*184 _0165_
*185 _0166_
*186 _0167_
*187 _0168_
*188 _0169_
*189 _0170_
*190 _0171_
*191 _0172_
*192 _0173_
*193 _0174_
*194 _0175_
*195 _0176_
*196 _0177_
*197 _0178_
*198 _0179_
*199 _0180_
*200 _0181_
*201 _0182_
*202 _0183_
*203 _0184_
*204 _0185_
*205 _0186_
*206 _0187_
*207 _0188_
*208 _0189_
*209 _0190_
*210 _0191_
*211 _0192_
*212 _0193_
*213 _0194_
*214 _0195_
*215 _0196_
*216 _0197_
*217 _0198_
*218 _0199_
*219 _0200_
*220 _0201_
*221 _0202_
*222 _0203_
*223 _0204_
*224 _0205_
*225 _0206_
*226 _0207_
*227 _0208_
*228 _0209_
*229 _0210_
*230 _0211_
*231 _0212_
*232 _0213_
*233 _0214_
*234 _0215_
*235 _0216_
*236 _0217_
*237 _0218_
*238 _0219_
*239 _0220_
*240 _0221_
*241 _0222_
*242 _0223_
*243 _0224_
*244 _0225_
*245 _0226_
*246 _0227_
*247 _0228_
*248 _0229_
*249 _0230_
*250 _0231_
*251 _0232_
*252 _0233_
*253 _0234_
*254 _0235_
*255 _0236_
*256 _0237_
*257 _0238_
*258 _0239_
*259 _0240_
*260 _0241_
*261 _0242_
*262 _0243_
*263 _0244_
*264 _0245_
*265 _0246_
*266 _0247_
*267 _0248_
*268 _0249_
*269 _0250_
*270 _0251_
*271 _0252_
*272 _0253_
*273 _0254_
*274 _0255_
*275 _0256_
*276 _0257_
*277 _0258_
*278 _0259_
*279 _0260_
*280 _0261_
*281 _0262_
*282 _0263_
*283 _0264_
*284 _0265_
*285 _0266_
*286 _0267_
*287 _0268_
*288 _0269_
*289 _0270_
*290 _0271_
*291 _0272_
*292 _0273_
*293 _0274_
*294 _0275_
*295 _0276_
*296 _0277_
*297 _0278_
*298 _0279_
*299 _0280_
*300 _0281_
*301 _0282_
*302 _0283_
*303 _0284_
*304 _0285_
*305 _0286_
*306 _0287_
*307 _0288_
*308 _0289_
*309 _0290_
*310 _0291_
*311 _0292_
*312 _0293_
*313 _0294_
*314 _0295_
*315 _0296_
*316 _0297_
*317 _0298_
*318 _0299_
*319 _0300_
*320 _0301_
*321 _0302_
*322 _0303_
*323 _0304_
*324 _0305_
*325 _0306_
*326 _0307_
*327 _0308_
*328 _0309_
*329 _0310_
*330 _0311_
*331 _0312_
*332 _0313_
*333 _0314_
*334 _0315_
*335 _0316_
*336 _0317_
*337 _0318_
*338 _0319_
*339 _0320_
*340 _0321_
*341 _0322_
*342 _0323_
*343 _0324_
*344 _0325_
*345 _0326_
*346 _0327_
*347 _0328_
*348 _0329_
*349 _0330_
*350 _0331_
*351 _0332_
*352 _0333_
*353 _0334_
*354 _0335_
*355 _0336_
*356 _0337_
*357 _0338_
*358 _0339_
*359 _0340_
*360 _0341_
*361 _0342_
*362 _0343_
*363 _0344_
*364 _0345_
*365 _0346_
*366 _0347_
*367 _0348_
*368 _0349_
*369 _0350_
*370 _0351_
*371 _0352_
*372 _0353_
*373 _0354_
*374 _0355_
*375 _0356_
*376 _0357_
*377 _0358_
*378 _0359_
*379 _0360_
*380 _0361_
*381 _0362_
*382 _0363_
*383 _0364_
*384 _0365_
*385 _0366_
*386 _0367_
*387 _0368_
*388 _0369_
*389 _0370_
*390 _0371_
*391 _0372_
*392 _0373_
*393 _0374_
*394 _0375_
*395 _0376_
*396 _0377_
*397 _0378_
*398 _0379_
*399 _0380_
*400 _0381_
*401 _0382_
*402 _0383_
*403 _0384_
*404 _0385_
*405 _0386_
*406 _0387_
*407 _0388_
*408 _0389_
*409 _0390_
*410 _0391_
*411 _0392_
*412 _0393_
*413 _0394_
*414 _0395_
*415 _0396_
*416 _0397_
*417 _0398_
*418 _0399_
*419 _0400_
*420 _0401_
*421 _0402_
*422 _0403_
*423 _0404_
*424 _0405_
*425 _0406_
*426 _0407_
*427 _0408_
*428 _0409_
*429 _0410_
*430 _0411_
*431 _0412_
*432 _0413_
*433 _0414_
*434 _0415_
*435 _0416_
*436 _0417_
*437 _0418_
*438 _0419_
*439 _0420_
*440 _0421_
*441 _0422_
*442 _0423_
*443 _0424_
*444 _0425_
*445 _0426_
*446 _0427_
*447 _0428_
*448 _0429_
*449 _0430_
*450 _0431_
*451 _0432_
*452 _0433_
*453 _0434_
*454 _0435_
*455 _0436_
*456 _0437_
*457 _0438_
*458 _0439_
*459 _0440_
*460 _0441_
*461 _0442_
*462 _0443_
*463 _0444_
*464 _0445_
*465 _0446_
*466 _0447_
*467 _0448_
*468 _0449_
*469 _0450_
*470 _0451_
*471 _0452_
*472 _0453_
*473 _0454_
*474 _0455_
*475 _0456_
*476 _0457_
*477 _0458_
*478 _0459_
*479 _0460_
*480 _0461_
*481 _0462_
*482 _0463_
*483 _0464_
*484 _0465_
*485 _0466_
*486 _0467_
*487 _0468_
*488 _0469_
*489 _0470_
*490 _0471_
*491 _0472_
*492 _0473_
*493 _0474_
*494 _0475_
*495 _0476_
*496 _0477_
*497 _0478_
*498 _0479_
*499 _0480_
*500 _0481_
*501 _0482_
*502 _0483_
*503 _0484_
*504 _0485_
*505 _0486_
*506 _0487_
*507 _0488_
*508 _0489_
*509 _0490_
*510 _0491_
*511 _0492_
*512 _0493_
*513 _0494_
*514 _0495_
*515 _0496_
*516 _0497_
*517 _0498_
*518 _0499_
*519 _0500_
*520 _0501_
*521 _0502_
*522 _0503_
*523 _0504_
*524 _0505_
*525 _0506_
*526 _0507_
*527 _0508_
*528 _0509_
*529 _0510_
*530 _0511_
*531 _0512_
*532 _0513_
*533 _0514_
*534 _0515_
*535 _0516_
*536 _0517_
*537 _0518_
*538 _0519_
*539 _0520_
*540 _0521_
*541 _0522_
*542 _0523_
*543 _0524_
*544 _0525_
*545 _0526_
*546 _0527_
*547 _0528_
*548 _0529_
*549 _0530_
*550 _0531_
*551 _0532_
*552 _0533_
*553 _0534_
*554 _0535_
*555 _0536_
*556 _0537_
*557 _0538_
*558 _0539_
*559 _0540_
*560 _0541_
*561 _0542_
*562 _0543_
*563 _0544_
*564 _0545_
*565 _0546_
*566 _0547_
*567 _0548_
*568 _0549_
*569 _0550_
*570 _0551_
*571 _0552_
*572 _0553_
*573 _0554_
*574 _0555_
*575 _0556_
*576 _0557_
*577 _0558_
*578 _0559_
*579 _0560_
*580 _0561_
*581 _0562_
*582 _0563_
*583 _0564_
*584 _0565_
*585 _0566_
*586 _0567_
*587 _0568_
*588 _0569_
*589 _0570_
*590 _0571_
*591 _0572_
*592 _0573_
*593 _0574_
*594 _0575_
*595 _0576_
*596 _0577_
*597 _0578_
*598 _0579_
*599 _0580_
*600 _0581_
*601 _0582_
*602 _0583_
*603 _0584_
*604 _0585_
*605 _0586_
*606 _0587_
*607 _0588_
*608 _0589_
*609 _0590_
*610 _0591_
*611 _0592_
*612 _0593_
*613 _0594_
*614 _0595_
*615 _0596_
*616 _0597_
*617 _0598_
*618 _0599_
*619 _0600_
*620 _0601_
*621 _0602_
*622 _0603_
*623 _0604_
*624 _0605_
*625 _0606_
*626 _0607_
*627 _0608_
*628 _0609_
*629 _0610_
*630 _0611_
*631 _0612_
*632 _0613_
*633 _0614_
*634 _0615_
*635 _0616_
*636 _0617_
*637 _0618_
*638 _0619_
*639 _0620_
*640 _0621_
*641 _0622_
*642 _0623_
*643 _0624_
*644 _0625_
*645 _0626_
*646 _0627_
*647 _0628_
*648 _0629_
*649 _0630_
*650 _0631_
*651 _0632_
*652 _0633_
*653 _0634_
*654 _0635_
*655 _0636_
*656 _0637_
*657 _0638_
*658 _0639_
*659 _0640_
*660 _0641_
*661 _0642_
*662 _0643_
*663 _0644_
*664 _0645_
*665 _0646_
*666 _0647_
*667 _0648_
*668 _0649_
*669 _0650_
*670 _0651_
*671 _0652_
*672 _0653_
*673 _0654_
*674 _0655_
*675 _0656_
*676 _0657_
*677 _0658_
*678 _0659_
*679 _0660_
*680 _0661_
*681 _0662_
*682 _0663_
*683 _0664_
*684 _0665_
*685 _0666_
*686 _0667_
*687 _0668_
*688 _0669_
*689 _0670_
*690 _0671_
*691 _0672_
*692 _0673_
*693 _0674_
*694 _0675_
*695 _0676_
*696 _0677_
*697 _0678_
*698 _0679_
*699 _0680_
*700 _0681_
*701 _0682_
*702 _0683_
*703 _0684_
*704 _0685_
*705 _0686_
*706 _0687_
*707 _0688_
*708 _0689_
*709 _0690_
*710 _0691_
*711 _0692_
*712 _0693_
*713 _0694_
*714 _0695_
*715 _0696_
*716 _0697_
*717 _0698_
*718 _0699_
*719 _0700_
*720 _0701_
*721 _0702_
*722 _0703_
*723 _0704_
*724 _0705_
*725 _0706_
*726 _0707_
*727 _0708_
*728 _0709_
*729 _0710_
*730 _0711_
*731 _0712_
*732 _0713_
*733 _0714_
*734 _0715_
*735 _0716_
*736 _0717_
*737 _0718_
*738 _0719_
*739 _0720_
*740 _0721_
*741 _0722_
*742 _0723_
*743 _0724_
*744 _0725_
*745 _0726_
*746 _0727_
*747 _0728_
*748 _0729_
*749 _0730_
*750 _0731_
*751 _0732_
*752 _0733_
*753 _0734_
*754 _0735_
*755 _0736_
*756 _0737_
*757 _0738_
*758 _0739_
*759 _0740_
*760 _0741_
*761 _0742_
*762 _0743_
*763 _0744_
*764 _0745_
*765 _0746_
*766 _0747_
*767 _0748_
*768 _0749_
*769 _0750_
*770 _0751_
*771 _0752_
*772 _0753_
*773 _0754_
*774 _0755_
*775 _0756_
*776 _0757_
*777 _0758_
*778 _0759_
*779 _0760_
*780 _0761_
*781 _0762_
*782 _0763_
*783 _0764_
*784 _0765_
*785 _0766_
*786 _0767_
*787 _0768_
*788 _0769_
*789 _0770_
*790 _0771_
*791 _0772_
*792 _0773_
*793 _0774_
*794 _0775_
*795 _0776_
*796 _0777_
*797 _0778_
*798 _0779_
*799 _0780_
*800 _0781_
*801 _0782_
*802 _0783_
*803 _0784_
*804 _0785_
*805 _0786_
*806 _0787_
*807 _0788_
*808 _0789_
*809 _0790_
*810 _0791_
*811 _0792_
*812 _0793_
*813 _0794_
*814 _0795_
*815 _0796_
*816 _0797_
*817 _0798_
*818 _0799_
*819 _0800_
*820 _0801_
*821 _0802_
*822 _0803_
*823 _0804_
*824 _0805_
*825 _0806_
*826 _0807_
*827 _0808_
*828 _0809_
*829 _0810_
*830 _0811_
*831 _0812_
*832 _0813_
*833 _0814_
*834 _0815_
*835 _0816_
*836 _0817_
*837 _0818_
*838 _0819_
*839 _0820_
*840 _0821_
*841 _0822_
*842 _0823_
*843 _0824_
*844 _0825_
*845 _0826_
*846 _0827_
*847 _0828_
*848 _0829_
*849 _0830_
*850 _0831_
*851 _0832_
*852 _0833_
*853 _0834_
*854 _0835_
*855 _0836_
*856 _0837_
*857 _0838_
*858 _0839_
*859 _0840_
*860 clknet_0_io_in[0]
*861 clknet_4_0_0_io_in[0]
*862 clknet_4_10_0_io_in[0]
*863 clknet_4_11_0_io_in[0]
*864 clknet_4_12_0_io_in[0]
*865 clknet_4_13_0_io_in[0]
*866 clknet_4_14_0_io_in[0]
*867 clknet_4_15_0_io_in[0]
*868 clknet_4_1_0_io_in[0]
*869 clknet_4_2_0_io_in[0]
*870 clknet_4_3_0_io_in[0]
*871 clknet_4_4_0_io_in[0]
*872 clknet_4_5_0_io_in[0]
*873 clknet_4_6_0_io_in[0]
*874 clknet_4_7_0_io_in[0]
*875 clknet_4_8_0_io_in[0]
*876 clknet_4_9_0_io_in[0]
*877 net1
*878 net2
*879 net3
*880 net4
*881 net5
*882 net6
*883 net7
*884 r_a\[0\]
*885 r_a\[1\]
*886 r_a\[2\]
*887 r_a\[3\]
*888 r_c
*889 r_ins\[0\]
*890 r_ins\[1\]
*891 r_ins\[2\]
*892 r_ins\[3\]
*893 r_local_ram\[0\]\[0\]
*894 r_local_ram\[0\]\[1\]
*895 r_local_ram\[0\]\[2\]
*896 r_local_ram\[0\]\[3\]
*897 r_local_ram\[10\]\[0\]
*898 r_local_ram\[10\]\[1\]
*899 r_local_ram\[10\]\[2\]
*900 r_local_ram\[10\]\[3\]
*901 r_local_ram\[11\]\[0\]
*902 r_local_ram\[11\]\[1\]
*903 r_local_ram\[11\]\[2\]
*904 r_local_ram\[11\]\[3\]
*905 r_local_ram\[12\]\[0\]
*906 r_local_ram\[12\]\[1\]
*907 r_local_ram\[12\]\[2\]
*908 r_local_ram\[12\]\[3\]
*909 r_local_ram\[13\]\[0\]
*910 r_local_ram\[13\]\[1\]
*911 r_local_ram\[13\]\[2\]
*912 r_local_ram\[13\]\[3\]
*913 r_local_ram\[14\]\[0\]
*914 r_local_ram\[14\]\[1\]
*915 r_local_ram\[14\]\[2\]
*916 r_local_ram\[14\]\[3\]
*917 r_local_ram\[15\]\[0\]
*918 r_local_ram\[15\]\[1\]
*919 r_local_ram\[15\]\[2\]
*920 r_local_ram\[15\]\[3\]
*921 r_local_ram\[16\]\[0\]
*922 r_local_ram\[16\]\[1\]
*923 r_local_ram\[16\]\[2\]
*924 r_local_ram\[16\]\[3\]
*925 r_local_ram\[17\]\[0\]
*926 r_local_ram\[17\]\[1\]
*927 r_local_ram\[17\]\[2\]
*928 r_local_ram\[17\]\[3\]
*929 r_local_ram\[18\]\[0\]
*930 r_local_ram\[18\]\[1\]
*931 r_local_ram\[18\]\[2\]
*932 r_local_ram\[18\]\[3\]
*933 r_local_ram\[19\]\[0\]
*934 r_local_ram\[19\]\[1\]
*935 r_local_ram\[19\]\[2\]
*936 r_local_ram\[19\]\[3\]
*937 r_local_ram\[1\]\[0\]
*938 r_local_ram\[1\]\[1\]
*939 r_local_ram\[1\]\[2\]
*940 r_local_ram\[1\]\[3\]
*941 r_local_ram\[20\]\[0\]
*942 r_local_ram\[20\]\[1\]
*943 r_local_ram\[20\]\[2\]
*944 r_local_ram\[20\]\[3\]
*945 r_local_ram\[21\]\[0\]
*946 r_local_ram\[21\]\[1\]
*947 r_local_ram\[21\]\[2\]
*948 r_local_ram\[21\]\[3\]
*949 r_local_ram\[22\]\[0\]
*950 r_local_ram\[22\]\[1\]
*951 r_local_ram\[22\]\[2\]
*952 r_local_ram\[22\]\[3\]
*953 r_local_ram\[23\]\[0\]
*954 r_local_ram\[23\]\[1\]
*955 r_local_ram\[23\]\[2\]
*956 r_local_ram\[23\]\[3\]
*957 r_local_ram\[2\]\[0\]
*958 r_local_ram\[2\]\[1\]
*959 r_local_ram\[2\]\[2\]
*960 r_local_ram\[2\]\[3\]
*961 r_local_ram\[3\]\[0\]
*962 r_local_ram\[3\]\[1\]
*963 r_local_ram\[3\]\[2\]
*964 r_local_ram\[3\]\[3\]
*965 r_local_ram\[4\]\[0\]
*966 r_local_ram\[4\]\[1\]
*967 r_local_ram\[4\]\[2\]
*968 r_local_ram\[4\]\[3\]
*969 r_local_ram\[5\]\[0\]
*970 r_local_ram\[5\]\[1\]
*971 r_local_ram\[5\]\[2\]
*972 r_local_ram\[5\]\[3\]
*973 r_local_ram\[6\]\[0\]
*974 r_local_ram\[6\]\[1\]
*975 r_local_ram\[6\]\[2\]
*976 r_local_ram\[6\]\[3\]
*977 r_local_ram\[7\]\[0\]
*978 r_local_ram\[7\]\[1\]
*979 r_local_ram\[7\]\[2\]
*980 r_local_ram\[7\]\[3\]
*981 r_local_ram\[8\]\[0\]
*982 r_local_ram\[8\]\[1\]
*983 r_local_ram\[8\]\[2\]
*984 r_local_ram\[8\]\[3\]
*985 r_local_ram\[9\]\[0\]
*986 r_local_ram\[9\]\[1\]
*987 r_local_ram\[9\]\[2\]
*988 r_local_ram\[9\]\[3\]
*989 r_pc\[0\]
*990 r_pc\[1\]
*991 r_pc\[2\]
*992 r_pc\[3\]
*993 r_pc\[4\]
*994 r_pc\[5\]
*995 r_pc\[6\]
*996 r_phase\[0\]
*997 r_phase\[1\]
*998 r_phase\[2\]
*999 r_phase\[3\]
*1000 r_phase\[4\]
*1001 r_phase\[5\]
*1002 r_phase\[6\]
*1003 r_phase\[7\]
*1004 r_s0\[0\]
*1005 r_s0\[1\]
*1006 r_s0\[2\]
*1007 r_s0\[3\]
*1008 r_s0\[4\]
*1009 r_s0\[5\]
*1010 r_s0\[6\]
*1011 r_s1\[0\]
*1012 r_s1\[1\]
*1013 r_s1\[2\]
*1014 r_s1\[3\]
*1015 r_s1\[4\]
*1016 r_s1\[5\]
*1017 r_s1\[6\]
*1018 r_s2\[0\]
*1019 r_s2\[1\]
*1020 r_s2\[2\]
*1021 r_s2\[3\]
*1022 r_s2\[4\]
*1023 r_s2\[5\]
*1024 r_s2\[6\]
*1025 r_s3\[0\]
*1026 r_s3\[1\]
*1027 r_s3\[2\]
*1028 r_s3\[3\]
*1029 r_s3\[4\]
*1030 r_s3\[5\]
*1031 r_s3\[6\]
*1032 r_tmp2\[0\]
*1033 r_tmp2\[1\]
*1034 r_tmp2\[2\]
*1035 r_tmp2\[3\]
*1036 r_tmp\[0\]
*1037 r_tmp\[1\]
*1038 r_tmp\[2\]
*1039 r_tmp\[3\]
*1040 r_x\[0\]
*1041 r_x\[1\]
*1042 r_x\[2\]
*1043 r_x\[3\]
*1044 r_x\[4\]
*1045 r_x\[5\]
*1046 r_x\[6\]
*1047 r_x\[7\]
*1048 r_y\[0\]
*1049 r_y\[1\]
*1050 r_y\[2\]
*1051 r_y\[3\]
*1052 r_y\[4\]
*1053 r_y\[5\]
*1054 r_y\[6\]
*1055 r_y\[7\]
*1056 strobe_out
*1057 ANTENNA_0
*1058 ANTENNA_1
*1059 FILLER_0_100
*1060 FILLER_0_113
*1061 FILLER_0_121
*1062 FILLER_0_131
*1063 FILLER_0_139
*1064 FILLER_0_141
*1065 FILLER_0_154
*1066 FILLER_0_161
*1067 FILLER_0_167
*1068 FILLER_0_169
*1069 FILLER_0_181
*1070 FILLER_0_193
*1071 FILLER_0_197
*1072 FILLER_0_209
*1073 FILLER_0_221
*1074 FILLER_0_225
*1075 FILLER_0_237
*1076 FILLER_0_24
*1077 FILLER_0_249
*1078 FILLER_0_253
*1079 FILLER_0_265
*1080 FILLER_0_277
*1081 FILLER_0_281
*1082 FILLER_0_293
*1083 FILLER_0_3
*1084 FILLER_0_36
*1085 FILLER_0_45
*1086 FILLER_0_53
*1087 FILLER_0_57
*1088 FILLER_0_61
*1089 FILLER_0_65
*1090 FILLER_0_78
*1091 FILLER_0_85
*1092 FILLER_0_92
*1093 FILLER_0_96
*1094 FILLER_10_103
*1095 FILLER_10_116
*1096 FILLER_10_129
*1097 FILLER_10_13
*1098 FILLER_10_136
*1099 FILLER_10_144
*1100 FILLER_10_151
*1101 FILLER_10_158
*1102 FILLER_10_170
*1103 FILLER_10_180
*1104 FILLER_10_187
*1105 FILLER_10_195
*1106 FILLER_10_200
*1107 FILLER_10_212
*1108 FILLER_10_224
*1109 FILLER_10_24
*1110 FILLER_10_244
*1111 FILLER_10_262
*1112 FILLER_10_269
*1113 FILLER_10_293
*1114 FILLER_10_38
*1115 FILLER_10_42
*1116 FILLER_10_59
*1117 FILLER_10_6
*1118 FILLER_10_72
*1119 FILLER_10_80
*1120 FILLER_10_92
*1121 FILLER_10_96
*1122 FILLER_11_103
*1123 FILLER_11_111
*1124 FILLER_11_113
*1125 FILLER_11_128
*1126 FILLER_11_134
*1127 FILLER_11_144
*1128 FILLER_11_150
*1129 FILLER_11_160
*1130 FILLER_11_185
*1131 FILLER_11_19
*1132 FILLER_11_205
*1133 FILLER_11_218
*1134 FILLER_11_228
*1135 FILLER_11_241
*1136 FILLER_11_249
*1137 FILLER_11_26
*1138 FILLER_11_272
*1139 FILLER_11_290
*1140 FILLER_11_298
*1141 FILLER_11_39
*1142 FILLER_11_47
*1143 FILLER_11_52
*1144 FILLER_11_61
*1145 FILLER_11_71
*1146 FILLER_11_82
*1147 FILLER_11_92
*1148 FILLER_12_105
*1149 FILLER_12_113
*1150 FILLER_12_119
*1151 FILLER_12_132
*1152 FILLER_12_157
*1153 FILLER_12_165
*1154 FILLER_12_169
*1155 FILLER_12_17
*1156 FILLER_12_182
*1157 FILLER_12_189
*1158 FILLER_12_195
*1159 FILLER_12_197
*1160 FILLER_12_209
*1161 FILLER_12_229
*1162 FILLER_12_237
*1163 FILLER_12_24
*1164 FILLER_12_248
*1165 FILLER_12_256
*1166 FILLER_12_262
*1167 FILLER_12_279
*1168 FILLER_12_292
*1169 FILLER_12_298
*1170 FILLER_12_3
*1171 FILLER_12_38
*1172 FILLER_12_53
*1173 FILLER_12_65
*1174 FILLER_12_79
*1175 FILLER_12_8
*1176 FILLER_12_83
*1177 FILLER_12_85
*1178 FILLER_12_94
*1179 FILLER_13_105
*1180 FILLER_13_111
*1181 FILLER_13_118
*1182 FILLER_13_126
*1183 FILLER_13_138
*1184 FILLER_13_14
*1185 FILLER_13_145
*1186 FILLER_13_152
*1187 FILLER_13_156
*1188 FILLER_13_162
*1189 FILLER_13_169
*1190 FILLER_13_173
*1191 FILLER_13_178
*1192 FILLER_13_184
*1193 FILLER_13_194
*1194 FILLER_13_214
*1195 FILLER_13_222
*1196 FILLER_13_225
*1197 FILLER_13_247
*1198 FILLER_13_253
*1199 FILLER_13_264
*1200 FILLER_13_272
*1201 FILLER_13_281
*1202 FILLER_13_293
*1203 FILLER_13_32
*1204 FILLER_13_45
*1205 FILLER_13_52
*1206 FILLER_13_6
*1207 FILLER_13_73
*1208 FILLER_13_81
*1209 FILLER_13_94
*1210 FILLER_14_107
*1211 FILLER_14_121
*1212 FILLER_14_135
*1213 FILLER_14_139
*1214 FILLER_14_151
*1215 FILLER_14_155
*1216 FILLER_14_161
*1217 FILLER_14_168
*1218 FILLER_14_189
*1219 FILLER_14_19
*1220 FILLER_14_195
*1221 FILLER_14_197
*1222 FILLER_14_210
*1223 FILLER_14_218
*1224 FILLER_14_232
*1225 FILLER_14_245
*1226 FILLER_14_251
*1227 FILLER_14_253
*1228 FILLER_14_27
*1229 FILLER_14_270
*1230 FILLER_14_277
*1231 FILLER_14_289
*1232 FILLER_14_29
*1233 FILLER_14_297
*1234 FILLER_14_35
*1235 FILLER_14_47
*1236 FILLER_14_60
*1237 FILLER_14_64
*1238 FILLER_14_70
*1239 FILLER_14_80
*1240 FILLER_14_85
*1241 FILLER_14_99
*1242 FILLER_15_103
*1243 FILLER_15_108
*1244 FILLER_15_113
*1245 FILLER_15_120
*1246 FILLER_15_138
*1247 FILLER_15_14
*1248 FILLER_15_164
*1249 FILLER_15_169
*1250 FILLER_15_189
*1251 FILLER_15_197
*1252 FILLER_15_20
*1253 FILLER_15_208
*1254 FILLER_15_219
*1255 FILLER_15_223
*1256 FILLER_15_234
*1257 FILLER_15_25
*1258 FILLER_15_261
*1259 FILLER_15_276
*1260 FILLER_15_281
*1261 FILLER_15_293
*1262 FILLER_15_3
*1263 FILLER_15_33
*1264 FILLER_15_45
*1265 FILLER_15_52
*1266 FILLER_15_73
*1267 FILLER_15_87
*1268 FILLER_15_99
*1269 FILLER_16_102
*1270 FILLER_16_112
*1271 FILLER_16_120
*1272 FILLER_16_127
*1273 FILLER_16_136
*1274 FILLER_16_14
*1275 FILLER_16_141
*1276 FILLER_16_149
*1277 FILLER_16_156
*1278 FILLER_16_160
*1279 FILLER_16_174
*1280 FILLER_16_178
*1281 FILLER_16_182
*1282 FILLER_16_189
*1283 FILLER_16_195
*1284 FILLER_16_200
*1285 FILLER_16_204
*1286 FILLER_16_226
*1287 FILLER_16_24
*1288 FILLER_16_240
*1289 FILLER_16_248
*1290 FILLER_16_253
*1291 FILLER_16_263
*1292 FILLER_16_269
*1293 FILLER_16_286
*1294 FILLER_16_29
*1295 FILLER_16_293
*1296 FILLER_16_3
*1297 FILLER_16_37
*1298 FILLER_16_44
*1299 FILLER_16_52
*1300 FILLER_16_60
*1301 FILLER_16_69
*1302 FILLER_16_8
*1303 FILLER_16_80
*1304 FILLER_16_88
*1305 FILLER_17_102
*1306 FILLER_17_108
*1307 FILLER_17_12
*1308 FILLER_17_121
*1309 FILLER_17_136
*1310 FILLER_17_144
*1311 FILLER_17_152
*1312 FILLER_17_163
*1313 FILLER_17_167
*1314 FILLER_17_173
*1315 FILLER_17_187
*1316 FILLER_17_191
*1317 FILLER_17_208
*1318 FILLER_17_216
*1319 FILLER_17_225
*1320 FILLER_17_243
*1321 FILLER_17_251
*1322 FILLER_17_256
*1323 FILLER_17_263
*1324 FILLER_17_270
*1325 FILLER_17_278
*1326 FILLER_17_281
*1327 FILLER_17_29
*1328 FILLER_17_293
*1329 FILLER_17_44
*1330 FILLER_17_52
*1331 FILLER_17_6
*1332 FILLER_17_73
*1333 FILLER_17_80
*1334 FILLER_17_94
*1335 FILLER_18_103
*1336 FILLER_18_111
*1337 FILLER_18_121
*1338 FILLER_18_136
*1339 FILLER_18_144
*1340 FILLER_18_154
*1341 FILLER_18_171
*1342 FILLER_18_18
*1343 FILLER_18_191
*1344 FILLER_18_195
*1345 FILLER_18_206
*1346 FILLER_18_213
*1347 FILLER_18_226
*1348 FILLER_18_239
*1349 FILLER_18_246
*1350 FILLER_18_26
*1351 FILLER_18_262
*1352 FILLER_18_286
*1353 FILLER_18_29
*1354 FILLER_18_293
*1355 FILLER_18_3
*1356 FILLER_18_44
*1357 FILLER_18_57
*1358 FILLER_18_61
*1359 FILLER_18_69
*1360 FILLER_18_80
*1361 FILLER_18_89
*1362 FILLER_19_101
*1363 FILLER_19_108
*1364 FILLER_19_113
*1365 FILLER_19_119
*1366 FILLER_19_130
*1367 FILLER_19_136
*1368 FILLER_19_142
*1369 FILLER_19_156
*1370 FILLER_19_164
*1371 FILLER_19_174
*1372 FILLER_19_19
*1373 FILLER_19_191
*1374 FILLER_19_206
*1375 FILLER_19_210
*1376 FILLER_19_220
*1377 FILLER_19_230
*1378 FILLER_19_243
*1379 FILLER_19_26
*1380 FILLER_19_265
*1381 FILLER_19_271
*1382 FILLER_19_276
*1383 FILLER_19_290
*1384 FILLER_19_298
*1385 FILLER_19_35
*1386 FILLER_19_44
*1387 FILLER_19_48
*1388 FILLER_19_52
*1389 FILLER_19_57
*1390 FILLER_19_65
*1391 FILLER_19_80
*1392 FILLER_19_89
*1393 FILLER_1_102
*1394 FILLER_1_110
*1395 FILLER_1_129
*1396 FILLER_1_140
*1397 FILLER_1_164
*1398 FILLER_1_169
*1399 FILLER_1_181
*1400 FILLER_1_193
*1401 FILLER_1_205
*1402 FILLER_1_21
*1403 FILLER_1_217
*1404 FILLER_1_223
*1405 FILLER_1_225
*1406 FILLER_1_237
*1407 FILLER_1_249
*1408 FILLER_1_25
*1409 FILLER_1_261
*1410 FILLER_1_273
*1411 FILLER_1_279
*1412 FILLER_1_281
*1413 FILLER_1_293
*1414 FILLER_1_3
*1415 FILLER_1_35
*1416 FILLER_1_43
*1417 FILLER_1_50
*1418 FILLER_1_73
*1419 FILLER_1_77
*1420 FILLER_1_82
*1421 FILLER_20_107
*1422 FILLER_20_117
*1423 FILLER_20_132
*1424 FILLER_20_157
*1425 FILLER_20_16
*1426 FILLER_20_165
*1427 FILLER_20_183
*1428 FILLER_20_192
*1429 FILLER_20_197
*1430 FILLER_20_205
*1431 FILLER_20_225
*1432 FILLER_20_24
*1433 FILLER_20_245
*1434 FILLER_20_251
*1435 FILLER_20_253
*1436 FILLER_20_257
*1437 FILLER_20_267
*1438 FILLER_20_275
*1439 FILLER_20_293
*1440 FILLER_20_3
*1441 FILLER_20_35
*1442 FILLER_20_53
*1443 FILLER_20_63
*1444 FILLER_20_71
*1445 FILLER_20_80
*1446 FILLER_20_85
*1447 FILLER_20_9
*1448 FILLER_20_94
*1449 FILLER_21_103
*1450 FILLER_21_111
*1451 FILLER_21_113
*1452 FILLER_21_128
*1453 FILLER_21_138
*1454 FILLER_21_145
*1455 FILLER_21_155
*1456 FILLER_21_16
*1457 FILLER_21_164
*1458 FILLER_21_178
*1459 FILLER_21_203
*1460 FILLER_21_212
*1461 FILLER_21_220
*1462 FILLER_21_225
*1463 FILLER_21_239
*1464 FILLER_21_264
*1465 FILLER_21_27
*1466 FILLER_21_271
*1467 FILLER_21_279
*1468 FILLER_21_284
*1469 FILLER_21_291
*1470 FILLER_21_3
*1471 FILLER_21_37
*1472 FILLER_21_48
*1473 FILLER_21_63
*1474 FILLER_21_69
*1475 FILLER_21_82
*1476 FILLER_21_89
*1477 FILLER_21_9
*1478 FILLER_22_109
*1479 FILLER_22_117
*1480 FILLER_22_127
*1481 FILLER_22_136
*1482 FILLER_22_151
*1483 FILLER_22_17
*1484 FILLER_22_177
*1485 FILLER_22_192
*1486 FILLER_22_197
*1487 FILLER_22_212
*1488 FILLER_22_225
*1489 FILLER_22_234
*1490 FILLER_22_24
*1491 FILLER_22_243
*1492 FILLER_22_251
*1493 FILLER_22_256
*1494 FILLER_22_276
*1495 FILLER_22_289
*1496 FILLER_22_297
*1497 FILLER_22_3
*1498 FILLER_22_32
*1499 FILLER_22_46
*1500 FILLER_22_57
*1501 FILLER_22_68
*1502 FILLER_22_7
*1503 FILLER_22_72
*1504 FILLER_22_80
*1505 FILLER_22_85
*1506 FILLER_22_94
*1507 FILLER_23_108
*1508 FILLER_23_120
*1509 FILLER_23_130
*1510 FILLER_23_136
*1511 FILLER_23_146
*1512 FILLER_23_150
*1513 FILLER_23_164
*1514 FILLER_23_169
*1515 FILLER_23_185
*1516 FILLER_23_19
*1517 FILLER_23_193
*1518 FILLER_23_205
*1519 FILLER_23_220
*1520 FILLER_23_230
*1521 FILLER_23_238
*1522 FILLER_23_252
*1523 FILLER_23_259
*1524 FILLER_23_266
*1525 FILLER_23_273
*1526 FILLER_23_279
*1527 FILLER_23_290
*1528 FILLER_23_298
*1529 FILLER_23_33
*1530 FILLER_23_46
*1531 FILLER_23_54
*1532 FILLER_23_60
*1533 FILLER_23_69
*1534 FILLER_23_77
*1535 FILLER_23_85
*1536 FILLER_23_93
*1537 FILLER_24_102
*1538 FILLER_24_109
*1539 FILLER_24_121
*1540 FILLER_24_125
*1541 FILLER_24_13
*1542 FILLER_24_136
*1543 FILLER_24_150
*1544 FILLER_24_157
*1545 FILLER_24_163
*1546 FILLER_24_167
*1547 FILLER_24_187
*1548 FILLER_24_195
*1549 FILLER_24_206
*1550 FILLER_24_216
*1551 FILLER_24_23
*1552 FILLER_24_240
*1553 FILLER_24_248
*1554 FILLER_24_269
*1555 FILLER_24_27
*1556 FILLER_24_277
*1557 FILLER_24_295
*1558 FILLER_24_39
*1559 FILLER_24_47
*1560 FILLER_24_56
*1561 FILLER_24_6
*1562 FILLER_24_65
*1563 FILLER_24_74
*1564 FILLER_24_82
*1565 FILLER_24_88
*1566 FILLER_24_95
*1567 FILLER_25_101
*1568 FILLER_25_109
*1569 FILLER_25_11
*1570 FILLER_25_113
*1571 FILLER_25_118
*1572 FILLER_25_132
*1573 FILLER_25_154
*1574 FILLER_25_163
*1575 FILLER_25_167
*1576 FILLER_25_169
*1577 FILLER_25_176
*1578 FILLER_25_189
*1579 FILLER_25_197
*1580 FILLER_25_209
*1581 FILLER_25_218
*1582 FILLER_25_228
*1583 FILLER_25_241
*1584 FILLER_25_25
*1585 FILLER_25_258
*1586 FILLER_25_265
*1587 FILLER_25_272
*1588 FILLER_25_284
*1589 FILLER_25_291
*1590 FILLER_25_3
*1591 FILLER_25_31
*1592 FILLER_25_37
*1593 FILLER_25_41
*1594 FILLER_25_45
*1595 FILLER_25_52
*1596 FILLER_25_64
*1597 FILLER_25_70
*1598 FILLER_25_80
*1599 FILLER_25_91
*1600 FILLER_26_103
*1601 FILLER_26_116
*1602 FILLER_26_124
*1603 FILLER_26_136
*1604 FILLER_26_141
*1605 FILLER_26_149
*1606 FILLER_26_168
*1607 FILLER_26_176
*1608 FILLER_26_187
*1609 FILLER_26_19
*1610 FILLER_26_195
*1611 FILLER_26_204
*1612 FILLER_26_208
*1613 FILLER_26_216
*1614 FILLER_26_236
*1615 FILLER_26_246
*1616 FILLER_26_253
*1617 FILLER_26_27
*1618 FILLER_26_272
*1619 FILLER_26_278
*1620 FILLER_26_295
*1621 FILLER_26_33
*1622 FILLER_26_46
*1623 FILLER_26_54
*1624 FILLER_26_62
*1625 FILLER_26_69
*1626 FILLER_26_76
*1627 FILLER_26_85
*1628 FILLER_26_91
*1629 FILLER_27_104
*1630 FILLER_27_11
*1631 FILLER_27_113
*1632 FILLER_27_125
*1633 FILLER_27_135
*1634 FILLER_27_157
*1635 FILLER_27_164
*1636 FILLER_27_178
*1637 FILLER_27_18
*1638 FILLER_27_191
*1639 FILLER_27_195
*1640 FILLER_27_203
*1641 FILLER_27_209
*1642 FILLER_27_219
*1643 FILLER_27_223
*1644 FILLER_27_225
*1645 FILLER_27_229
*1646 FILLER_27_235
*1647 FILLER_27_260
*1648 FILLER_27_273
*1649 FILLER_27_279
*1650 FILLER_27_290
*1651 FILLER_27_298
*1652 FILLER_27_3
*1653 FILLER_27_38
*1654 FILLER_27_51
*1655 FILLER_27_55
*1656 FILLER_27_67
*1657 FILLER_27_7
*1658 FILLER_27_80
*1659 FILLER_27_91
*1660 FILLER_28_100
*1661 FILLER_28_110
*1662 FILLER_28_114
*1663 FILLER_28_12
*1664 FILLER_28_123
*1665 FILLER_28_136
*1666 FILLER_28_141
*1667 FILLER_28_154
*1668 FILLER_28_16
*1669 FILLER_28_174
*1670 FILLER_28_182
*1671 FILLER_28_189
*1672 FILLER_28_195
*1673 FILLER_28_203
*1674 FILLER_28_212
*1675 FILLER_28_220
*1676 FILLER_28_230
*1677 FILLER_28_24
*1678 FILLER_28_244
*1679 FILLER_28_257
*1680 FILLER_28_261
*1681 FILLER_28_271
*1682 FILLER_28_29
*1683 FILLER_28_291
*1684 FILLER_28_44
*1685 FILLER_28_52
*1686 FILLER_28_6
*1687 FILLER_28_64
*1688 FILLER_28_78
*1689 FILLER_28_93
*1690 FILLER_29_107
*1691 FILLER_29_111
*1692 FILLER_29_120
*1693 FILLER_29_140
*1694 FILLER_29_164
*1695 FILLER_29_190
*1696 FILLER_29_20
*1697 FILLER_29_203
*1698 FILLER_29_212
*1699 FILLER_29_220
*1700 FILLER_29_225
*1701 FILLER_29_233
*1702 FILLER_29_241
*1703 FILLER_29_258
*1704 FILLER_29_271
*1705 FILLER_29_279
*1706 FILLER_29_28
*1707 FILLER_29_290
*1708 FILLER_29_298
*1709 FILLER_29_3
*1710 FILLER_29_39
*1711 FILLER_29_48
*1712 FILLER_29_65
*1713 FILLER_29_73
*1714 FILLER_29_81
*1715 FILLER_29_85
*1716 FILLER_29_95
*1717 FILLER_2_103
*1718 FILLER_2_113
*1719 FILLER_2_125
*1720 FILLER_2_134
*1721 FILLER_2_15
*1722 FILLER_2_150
*1723 FILLER_2_158
*1724 FILLER_2_165
*1725 FILLER_2_177
*1726 FILLER_2_189
*1727 FILLER_2_19
*1728 FILLER_2_195
*1729 FILLER_2_197
*1730 FILLER_2_209
*1731 FILLER_2_221
*1732 FILLER_2_233
*1733 FILLER_2_245
*1734 FILLER_2_251
*1735 FILLER_2_253
*1736 FILLER_2_265
*1737 FILLER_2_27
*1738 FILLER_2_277
*1739 FILLER_2_289
*1740 FILLER_2_29
*1741 FILLER_2_297
*1742 FILLER_2_3
*1743 FILLER_2_39
*1744 FILLER_2_47
*1745 FILLER_2_58
*1746 FILLER_2_67
*1747 FILLER_2_80
*1748 FILLER_2_9
*1749 FILLER_2_95
*1750 FILLER_30_101
*1751 FILLER_30_109
*1752 FILLER_30_116
*1753 FILLER_30_131
*1754 FILLER_30_139
*1755 FILLER_30_144
*1756 FILLER_30_15
*1757 FILLER_30_157
*1758 FILLER_30_169
*1759 FILLER_30_181
*1760 FILLER_30_188
*1761 FILLER_30_19
*1762 FILLER_30_202
*1763 FILLER_30_211
*1764 FILLER_30_220
*1765 FILLER_30_224
*1766 FILLER_30_23
*1767 FILLER_30_231
*1768 FILLER_30_244
*1769 FILLER_30_262
*1770 FILLER_30_27
*1771 FILLER_30_291
*1772 FILLER_30_36
*1773 FILLER_30_44
*1774 FILLER_30_50
*1775 FILLER_30_57
*1776 FILLER_30_6
*1777 FILLER_30_69
*1778 FILLER_30_80
*1779 FILLER_31_107
*1780 FILLER_31_11
*1781 FILLER_31_111
*1782 FILLER_31_113
*1783 FILLER_31_119
*1784 FILLER_31_129
*1785 FILLER_31_133
*1786 FILLER_31_137
*1787 FILLER_31_157
*1788 FILLER_31_165
*1789 FILLER_31_17
*1790 FILLER_31_178
*1791 FILLER_31_187
*1792 FILLER_31_196
*1793 FILLER_31_211
*1794 FILLER_31_220
*1795 FILLER_31_231
*1796 FILLER_31_241
*1797 FILLER_31_251
*1798 FILLER_31_273
*1799 FILLER_31_279
*1800 FILLER_31_290
*1801 FILLER_31_298
*1802 FILLER_31_3
*1803 FILLER_31_37
*1804 FILLER_31_48
*1805 FILLER_31_67
*1806 FILLER_31_75
*1807 FILLER_31_81
*1808 FILLER_31_86
*1809 FILLER_31_93
*1810 FILLER_32_108
*1811 FILLER_32_113
*1812 FILLER_32_133
*1813 FILLER_32_139
*1814 FILLER_32_151
*1815 FILLER_32_159
*1816 FILLER_32_178
*1817 FILLER_32_186
*1818 FILLER_32_19
*1819 FILLER_32_192
*1820 FILLER_32_202
*1821 FILLER_32_211
*1822 FILLER_32_219
*1823 FILLER_32_225
*1824 FILLER_32_232
*1825 FILLER_32_239
*1826 FILLER_32_246
*1827 FILLER_32_253
*1828 FILLER_32_269
*1829 FILLER_32_27