*SPEF "ieee 1481-1999"
*DESIGN "moyes0_top_module"
*DATE "11:11:11 Fri 11 11, 1111"
*VENDOR "OpenRCX"
*PROGRAM "Parallel Extraction"
*VERSION "1.0"
*DESIGN_FLOW "NAME_SCOPE LOCAL" "PIN_CAP NONE"
*DIVIDER /
*DELIMITER :
*BUS_DELIMITER []
*T_UNIT 1 NS
*C_UNIT 1 PF
*R_UNIT 1 OHM
*L_UNIT 1 HENRY

*NAME_MAP
*1 io_in[0]
*2 io_in[1]
*3 io_in[2]
*4 io_in[3]
*5 io_in[4]
*6 io_in[5]
*7 io_in[6]
*8 io_in[7]
*9 io_out[0]
*10 io_out[1]
*11 io_out[2]
*12 io_out[3]
*13 io_out[4]
*14 net4
*15 net5
*16 io_out[7]
*19 ADR\[0\]
*20 ADR\[10\]
*21 ADR\[11\]
*22 ADR\[12\]
*23 ADR\[13\]
*24 ADR\[14\]
*25 ADR\[15\]
*26 ADR\[1\]
*27 ADR\[2\]
*28 ADR\[3\]
*29 ADR\[4\]
*30 ADR\[5\]
*31 ADR\[6\]
*32 ADR\[7\]
*33 ADR\[8\]
*34 ADR\[9\]
*35 BwasFFFF
*36 CPUphase\[0\]
*37 CPUphase\[1\]
*38 CPUphase\[2\]
*39 LEQ
*40 PCCarry
*41 PC\[0\]
*42 PC\[10\]
*43 PC\[11\]
*44 PC\[12\]
*45 PC\[13\]
*46 PC\[14\]
*47 PC\[15\]
*48 PC\[1\]
*49 PC\[2\]
*50 PC\[3\]
*51 PC\[4\]
*52 PC\[5\]
*53 PC\[6\]
*54 PC\[7\]
*55 PC\[8\]
*56 PC\[9\]
*57 TBorrow
*58 TMP\[10\]
*59 TMP\[11\]
*60 TMP\[12\]
*61 TMP\[13\]
*62 TMP\[14\]
*63 TMP\[15\]
*64 TMP\[1\]
*65 TMP\[2\]
*66 TMP\[3\]
*67 TMP\[4\]
*68 TMP\[5\]
*69 TMP\[6\]
*70 TMP\[7\]
*71 TMP\[8\]
*72 TMP\[9\]
*73 TZero
*74 UARTcount\[0\]
*75 UARTcount\[1\]
*76 UARTcount\[2\]
*77 UARTcount\[3\]
*78 UARTcount\[4\]
*79 UARTout
*80 _000_
*81 _001_
*82 _002_
*83 _003_
*84 _004_
*85 _005_
*86 _006_
*87 _007_
*88 _008_
*89 _009_
*90 _010_
*91 _011_
*92 _012_
*93 _013_
*94 _014_
*95 _015_
*96 _016_
*97 _017_
*98 _018_
*99 _019_
*100 _020_
*101 _021_
*102 _022_
*103 _023_
*104 _024_
*105 _025_
*106 _026_
*107 _027_
*108 _028_
*109 _029_
*110 _030_
*111 _031_
*112 _032_
*113 _033_
*114 _034_
*115 _035_
*116 _036_
*117 _037_
*118 _038_
*119 _039_
*120 _040_
*121 _041_
*122 _042_
*123 _043_
*124 _044_
*125 _045_
*126 _046_
*127 _047_
*128 _048_
*129 _049_
*130 _050_
*131 _051_
*132 _052_
*133 _053_
*134 _054_
*135 _055_
*136 _056_
*137 _057_
*138 _058_
*139 _059_
*140 _060_
*141 _061_
*142 _062_
*143 _063_
*144 _064_
*145 _065_
*146 _066_
*147 _067_
*148 _068_
*149 _069_
*150 _070_
*151 _071_
*152 _072_
*153 _073_
*154 _074_
*155 _075_
*156 _076_
*157 _077_
*158 _078_
*159 _079_
*160 _080_
*161 _081_
*162 _082_
*163 _083_
*164 _084_
*165 _085_
*166 _086_
*167 _087_
*168 _088_
*169 _089_
*170 _090_
*171 _091_
*172 _092_
*173 _093_
*174 _094_
*175 _095_
*176 _096_
*177 _097_
*178 _098_
*179 _099_
*180 _100_
*181 _101_
*182 _102_
*183 _103_
*184 _104_
*185 _105_
*186 _106_
*187 _107_
*188 _108_
*189 _109_
*190 _110_
*191 _111_
*192 _112_
*193 _113_
*194 _114_
*195 _115_
*196 _116_
*197 _117_
*198 _118_
*199 _119_
*200 _120_
*201 _121_
*202 _122_
*203 _123_
*204 _124_
*205 _125_
*206 _126_
*207 _127_
*208 _128_
*209 _129_
*210 _130_
*211 _131_
*212 _132_
*213 _133_
*214 _134_
*215 _135_
*216 _136_
*217 _137_
*218 _138_
*219 _139_
*220 _140_
*221 _141_
*222 _142_
*223 _143_
*224 _144_
*225 _145_
*226 _146_
*227 _147_
*228 _148_
*229 _149_
*230 _150_
*231 _151_
*232 _152_
*233 _153_
*234 _154_
*235 _155_
*236 _156_
*237 _157_
*238 _158_
*239 _159_
*240 _160_
*241 _161_
*242 _162_
*243 _163_
*244 _164_
*245 _165_
*246 _166_
*247 _167_
*248 _168_
*249 _169_
*250 _170_
*251 _171_
*252 _172_
*253 _173_
*254 _174_
*255 _175_
*256 _176_
*257 _177_
*258 _178_
*259 _179_
*260 _180_
*261 _181_
*262 _182_
*263 _183_
*264 _184_
*265 _185_
*266 _186_
*267 _187_
*268 _188_
*269 _189_
*270 _190_
*271 _191_
*272 _192_
*273 _193_
*274 _194_
*275 _195_
*276 _196_
*277 _197_
*278 _198_
*279 _199_
*280 _200_
*281 _201_
*282 _202_
*283 _203_
*284 _204_
*285 _205_
*286 _206_
*287 _207_
*288 _208_
*289 _209_
*290 _210_
*291 _211_
*292 _212_
*293 _213_
*294 _214_
*295 _215_
*296 _216_
*297 _217_
*298 _218_
*299 _219_
*300 _220_
*301 _221_
*302 _222_
*303 _223_
*304 _224_
*305 _225_
*306 _226_
*307 _227_
*308 _228_
*309 _229_
*310 _230_
*311 _231_
*312 _232_
*313 _233_
*314 _234_
*315 _235_
*316 _236_
*317 _237_
*318 _238_
*319 _239_
*320 _240_
*321 _241_
*322 _242_
*323 _243_
*324 _244_
*325 _245_
*326 _246_
*327 _247_
*328 _248_
*329 _249_
*330 _250_
*331 _251_
*332 _252_
*333 _253_
*334 _254_
*335 _255_
*336 _256_
*337 _257_
*338 _258_
*339 _259_
*340 _260_
*341 _261_
*342 _262_
*343 _263_
*344 _264_
*345 _265_
*346 clknet_0_io_in[0]
*347 clknet_3_0__leaf_io_in[0]
*348 clknet_3_1__leaf_io_in[0]
*349 clknet_3_2__leaf_io_in[0]
*350 clknet_3_3__leaf_io_in[0]
*351 clknet_3_4__leaf_io_in[0]
*352 clknet_3_5__leaf_io_in[0]
*353 clknet_3_6__leaf_io_in[0]
*354 clknet_3_7__leaf_io_in[0]
*355 net1
*356 net2
*357 net3
*358 out7
*359 spi\.CS0
*360 spi\.CS1
*361 spi\.CSreg
*362 spi\.Data
*363 spi\.EndOfPhase
*364 spi\.MOSI
*365 spi\.PrepOutput
*366 spi\.PresetCarry
*367 spi\.SPICLK
*368 spi\.SPIphase\[0\]
*369 spi\.SPIphase\[1\]
*370 spi\.SPIphase\[2\]
*371 spi\.SPIphase\[3\]
*372 spi\.SPIphase\[4\]
*373 spi\.SPIphase\[5\]
*374 spi\.SPIphase\[6\]
*375 spi\.ShiftAddr
*376 spi\.ShiftDataRead
*377 spi\.ShiftDataWrite
*378 FILLER_0_101
*379 FILLER_0_109
*380 FILLER_0_113
*381 FILLER_0_132
*382 FILLER_0_141
*383 FILLER_0_15
*384 FILLER_0_153
*385 FILLER_0_165
*386 FILLER_0_169
*387 FILLER_0_181
*388 FILLER_0_193
*389 FILLER_0_197
*390 FILLER_0_209
*391 FILLER_0_221
*392 FILLER_0_225
*393 FILLER_0_237
*394 FILLER_0_24
*395 FILLER_0_249
*396 FILLER_0_253
*397 FILLER_0_265
*398 FILLER_0_277
*399 FILLER_0_281
*400 FILLER_0_293
*401 FILLER_0_3
*402 FILLER_0_38
*403 FILLER_0_45
*404 FILLER_0_52
*405 FILLER_0_62
*406 FILLER_0_74
*407 FILLER_0_82
*408 FILLER_0_85
*409 FILLER_0_94
*410 FILLER_10_101
*411 FILLER_10_114
*412 FILLER_10_118
*413 FILLER_10_128
*414 FILLER_10_136
*415 FILLER_10_157
*416 FILLER_10_169
*417 FILLER_10_181
*418 FILLER_10_193
*419 FILLER_10_197
*420 FILLER_10_209
*421 FILLER_10_221
*422 FILLER_10_233
*423 FILLER_10_24
*424 FILLER_10_245
*425 FILLER_10_251
*426 FILLER_10_253
*427 FILLER_10_265
*428 FILLER_10_277
*429 FILLER_10_289
*430 FILLER_10_297
*431 FILLER_10_3
*432 FILLER_10_34
*433 FILLER_10_49
*434 FILLER_10_63
*435 FILLER_10_7
*436 FILLER_10_71
*437 FILLER_10_80
*438 FILLER_10_88
*439 FILLER_11_108
*440 FILLER_11_117
*441 FILLER_11_137
*442 FILLER_11_146
*443 FILLER_11_15
*444 FILLER_11_153
*445 FILLER_11_165
*446 FILLER_11_169
*447 FILLER_11_181
*448 FILLER_11_193
*449 FILLER_11_205
*450 FILLER_11_217
*451 FILLER_11_223
*452 FILLER_11_225
*453 FILLER_11_237
*454 FILLER_11_249
*455 FILLER_11_261
*456 FILLER_11_273
*457 FILLER_11_279
*458 FILLER_11_281
*459 FILLER_11_293
*460 FILLER_11_3
*461 FILLER_11_36
*462 FILLER_11_49
*463 FILLER_11_55
*464 FILLER_11_57
*465 FILLER_11_68
*466 FILLER_11_76
*467 FILLER_11_86
*468 FILLER_12_100
*469 FILLER_12_121
*470 FILLER_12_128
*471 FILLER_12_141
*472 FILLER_12_15
*473 FILLER_12_151
*474 FILLER_12_163
*475 FILLER_12_175
*476 FILLER_12_187
*477 FILLER_12_195
*478 FILLER_12_197
*479 FILLER_12_209
*480 FILLER_12_221
*481 FILLER_12_233
*482 FILLER_12_24
*483 FILLER_12_245
*484 FILLER_12_251
*485 FILLER_12_253
*486 FILLER_12_265
*487 FILLER_12_277
*488 FILLER_12_289
*489 FILLER_12_29
*490 FILLER_12_297
*491 FILLER_12_3
*492 FILLER_12_39
*493 FILLER_12_47
*494 FILLER_12_58
*495 FILLER_12_71
*496 FILLER_12_80
*497 FILLER_12_85
*498 FILLER_12_94
*499 FILLER_13_106
*500 FILLER_13_122
*501 FILLER_13_135
*502 FILLER_13_141
*503 FILLER_13_15
*504 FILLER_13_158
*505 FILLER_13_166
*506 FILLER_13_169
*507 FILLER_13_181
*508 FILLER_13_193
*509 FILLER_13_205
*510 FILLER_13_217
*511 FILLER_13_223
*512 FILLER_13_225
*513 FILLER_13_237
*514 FILLER_13_249
*515 FILLER_13_261
*516 FILLER_13_273
*517 FILLER_13_279
*518 FILLER_13_281
*519 FILLER_13_293
*520 FILLER_13_3
*521 FILLER_13_35
*522 FILLER_13_48
*523 FILLER_13_57
*524 FILLER_13_61
*525 FILLER_13_68
*526 FILLER_13_79
*527 FILLER_13_86
*528 FILLER_13_97
*529 FILLER_14_105
*530 FILLER_14_125
*531 FILLER_14_131
*532 FILLER_14_135
*533 FILLER_14_139
*534 FILLER_14_15
*535 FILLER_14_150
*536 FILLER_14_162
*537 FILLER_14_174
*538 FILLER_14_186
*539 FILLER_14_194
*540 FILLER_14_197
*541 FILLER_14_209
*542 FILLER_14_221
*543 FILLER_14_233
*544 FILLER_14_24
*545 FILLER_14_245
*546 FILLER_14_251
*547 FILLER_14_253
*548 FILLER_14_265
*549 FILLER_14_277
*550 FILLER_14_289
*551 FILLER_14_29
*552 FILLER_14_297
*553 FILLER_14_3
*554 FILLER_14_42
*555 FILLER_14_49
*556 FILLER_14_69
*557 FILLER_14_73
*558 FILLER_14_80
*559 FILLER_14_95
*560 FILLER_15_107
*561 FILLER_15_11
*562 FILLER_15_111
*563 FILLER_15_116
*564 FILLER_15_144
*565 FILLER_15_156
*566 FILLER_15_169
*567 FILLER_15_17
*568 FILLER_15_181
*569 FILLER_15_193
*570 FILLER_15_205
*571 FILLER_15_217
*572 FILLER_15_223
*573 FILLER_15_225
*574 FILLER_15_237
*575 FILLER_15_249
*576 FILLER_15_261
*577 FILLER_15_273
*578 FILLER_15_279
*579 FILLER_15_281
*580 FILLER_15_29
*581 FILLER_15_293
*582 FILLER_15_3
*583 FILLER_15_35
*584 FILLER_15_52
*585 FILLER_15_65
*586 FILLER_15_73
*587 FILLER_15_82
*588 FILLER_15_90
*589 FILLER_16_109
*590 FILLER_16_116
*591 FILLER_16_124
*592 FILLER_16_128
*593 FILLER_16_144
*594 FILLER_16_156
*595 FILLER_16_168
*596 FILLER_16_180
*597 FILLER_16_192
*598 FILLER_16_197
*599 FILLER_16_209
*600 FILLER_16_221
*601 FILLER_16_233
*602 FILLER_16_24
*603 FILLER_16_245
*604 FILLER_16_251
*605 FILLER_16_253
*606 FILLER_16_265
*607 FILLER_16_277
*608 FILLER_16_289
*609 FILLER_16_29
*610 FILLER_16_297
*611 FILLER_16_3
*612 FILLER_16_38
*613 FILLER_16_42
*614 FILLER_16_53
*615 FILLER_16_7
*616 FILLER_16_73
*617 FILLER_16_81
*618 FILLER_16_89
*619 FILLER_17_103
*620 FILLER_17_111
*621 FILLER_17_129
*622 FILLER_17_137
*623 FILLER_17_15
*624 FILLER_17_155
*625 FILLER_17_167
*626 FILLER_17_169
*627 FILLER_17_181
*628 FILLER_17_193
*629 FILLER_17_205
*630 FILLER_17_217
*631 FILLER_17_22
*632 FILLER_17_223
*633 FILLER_17_225
*634 FILLER_17_237
*635 FILLER_17_249
*636 FILLER_17_261
*637 FILLER_17_273
*638 FILLER_17_279
*639 FILLER_17_281
*640 FILLER_17_293
*641 FILLER_17_3
*642 FILLER_17_42
*643 FILLER_17_54
*644 FILLER_17_57
*645 FILLER_17_69
*646 FILLER_17_93
*647 FILLER_18_102
*648 FILLER_18_11
*649 FILLER_18_115
*650 FILLER_18_119
*651 FILLER_18_136
*652 FILLER_18_150
*653 FILLER_18_162
*654 FILLER_18_174
*655 FILLER_18_186
*656 FILLER_18_194
*657 FILLER_18_197
*658 FILLER_18_209
*659 FILLER_18_22
*660 FILLER_18_221
*661 FILLER_18_233
*662 FILLER_18_245
*663 FILLER_18_251
*664 FILLER_18_253
*665 FILLER_18_265
*666 FILLER_18_277
*667 FILLER_18_289
*668 FILLER_18_297
*669 FILLER_18_3
*670 FILLER_18_32
*671 FILLER_18_41
*672 FILLER_18_48
*673 FILLER_18_56
*674 FILLER_18_64
*675 FILLER_18_72
*676 FILLER_18_80
*677 FILLER_18_85
*678 FILLER_18_95
*679 FILLER_19_110
*680 FILLER_19_118
*681 FILLER_19_126
*682 FILLER_19_137
*683 FILLER_19_146
*684 FILLER_19_158
*685 FILLER_19_166
*686 FILLER_19_169
*687 FILLER_19_181
*688 FILLER_19_193
*689 FILLER_19_205
*690 FILLER_19_21
*691 FILLER_19_217
*692 FILLER_19_223
*693 FILLER_19_225
*694 FILLER_19_237
*695 FILLER_19_249
*696 FILLER_19_261
*697 FILLER_19_273
*698 FILLER_19_279
*699 FILLER_19_281
*700 FILLER_19_293
*701 FILLER_19_3
*702 FILLER_19_32
*703 FILLER_19_52
*704 FILLER_19_57
*705 FILLER_19_65
*706 FILLER_19_70
*707 FILLER_19_84
*708 FILLER_19_98
*709 FILLER_1_107
*710 FILLER_1_111
*711 FILLER_1_113
*712 FILLER_1_117
*713 FILLER_1_121
*714 FILLER_1_129
*715 FILLER_1_147
*716 FILLER_1_15
*717 FILLER_1_154
*718 FILLER_1_166
*719 FILLER_1_169
*720 FILLER_1_181
*721 FILLER_1_193
*722 FILLER_1_205
*723 FILLER_1_217
*724 FILLER_1_223
*725 FILLER_1_225
*726 FILLER_1_237
*727 FILLER_1_249
*728 FILLER_1_261
*729 FILLER_1_273
*730 FILLER_1_279
*731 FILLER_1_281
*732 FILLER_1_293
*733 FILLER_1_3
*734 FILLER_1_32
*735 FILLER_1_52
*736 FILLER_1_73
*737 FILLER_1_77
*738 FILLER_1_87
*739 FILLER_20_113
*740 FILLER_20_117
*741 FILLER_20_12
*742 FILLER_20_134
*743 FILLER_20_141
*744 FILLER_20_153
*745 FILLER_20_165
*746 FILLER_20_177
*747 FILLER_20_18
*748 FILLER_20_189
*749 FILLER_20_195
*750 FILLER_20_197
*751 FILLER_20_209
*752 FILLER_20_221
*753 FILLER_20_233
*754 FILLER_20_24
*755 FILLER_20_245
*756 FILLER_20_251
*757 FILLER_20_253
*758 FILLER_20_265
*759 FILLER_20_277
*760 FILLER_20_289
*761 FILLER_20_297
*762 FILLER_20_3
*763 FILLER_20_39
*764 FILLER_20_49
*765 FILLER_20_57
*766 FILLER_20_75
*767 FILLER_20_83
*768 FILLER_20_92
*769 FILLER_20_96
*770 FILLER_21_104
*771 FILLER_21_129
*772 FILLER_21_136
*773 FILLER_21_156
*774 FILLER_21_16
*775 FILLER_21_169
*776 FILLER_21_181
*777 FILLER_21_193
*778 FILLER_21_205
*779 FILLER_21_217
*780 FILLER_21_223
*781 FILLER_21_225
*782 FILLER_21_237
*783 FILLER_21_249
*784 FILLER_21_261
*785 FILLER_21_27
*786 FILLER_21_273
*787 FILLER_21_279
*788 FILLER_21_281
*789 FILLER_21_293
*790 FILLER_21_3
*791 FILLER_21_38
*792 FILLER_21_52
*793 FILLER_21_73
*794 FILLER_21_87
*795 FILLER_21_9
*796 FILLER_21_94
*797 FILLER_22_121
*798 FILLER_22_136
*799 FILLER_22_141
*800 FILLER_22_153
*801 FILLER_22_160
*802 FILLER_22_172
*803 FILLER_22_184
*804 FILLER_22_19
*805 FILLER_22_197
*806 FILLER_22_209
*807 FILLER_22_221
*808 FILLER_22_233
*809 FILLER_22_245
*810 FILLER_22_251
*811 FILLER_22_253
*812 FILLER_22_265
*813 FILLER_22_27
*814 FILLER_22_277
*815 FILLER_22_289
*816 FILLER_22_297
*817 FILLER_22_39
*818 FILLER_22_65
*819 FILLER_22_79
*820 FILLER_22_83
*821 FILLER_22_93
*822 FILLER_23_107
*823 FILLER_23_111
*824 FILLER_23_113
*825 FILLER_23_12
*826 FILLER_23_135
*827 FILLER_23_155
*828 FILLER_23_167
*829 FILLER_23_169
*830 FILLER_23_181
*831 FILLER_23_19
*832 FILLER_23_193
*833 FILLER_23_205
*834 FILLER_23_217
*835 FILLER_23_223
*836 FILLER_23_225
*837 FILLER_23_237
*838 FILLER_23_249
*839 FILLER_23_261
*840 FILLER_23_273
*841 FILLER_23_279
*842 FILLER_23_281
*843 FILLER_23_293
*844 FILLER_23_3
*845 FILLER_23_33
*846 FILLER_23_37
*847 FILLER_23_41
*848 FILLER_23_52
*849 FILLER_23_73
*850 FILLER_23_87
*851 FILLER_23_95
*852 FILLER_23_99
*853 FILLER_24_104
*854 FILLER_24_108
*855 FILLER_24_117
*856 FILLER_24_12
*857 FILLER_24_130
*858 FILLER_24_138
*859 FILLER_24_150
*860 FILLER_24_158
*861 FILLER_24_170
*862 FILLER_24_18
*863 FILLER_24_182
*864 FILLER_24_194
*865 FILLER_24_197
*866 FILLER_24_209
*867 FILLER_24_221
*868 FILLER_24_233
*869 FILLER_24_24
*870 FILLER_24_245
*871 FILLER_24_251
*872 FILLER_24_253
*873 FILLER_24_265
*874 FILLER_24_277
*875 FILLER_24_289
*876 FILLER_24_29
*877 FILLER_24_297
*878 FILLER_24_3
*879 FILLER_24_40
*880 FILLER_24_52
*881 FILLER_24_61
*882 FILLER_24_70
*883 FILLER_24_80
*884 FILLER_24_85
*885 FILLER_24_96
*886 FILLER_25_101
*887 FILLER_25_108
*888 FILLER_25_116
*889 FILLER_25_120
*890 FILLER_25_13
*891 FILLER_25_137
*892 FILLER_25_152
*893 FILLER_25_164
*894 FILLER_25_169
*895 FILLER_25_181
*896 FILLER_25_193
*897 FILLER_25_205
*898 FILLER_25_217
*899 FILLER_25_22
*900 FILLER_25_223
*901 FILLER_25_225
*902 FILLER_25_237
*903 FILLER_25_249
*904 FILLER_25_261
*905 FILLER_25_273
*906 FILLER_25_279
*907 FILLER_25_281
*908 FILLER_25_293
*909 FILLER_25_3
*910 FILLER_25_32
*911 FILLER_25_41
*912 FILLER_25_45
*913 FILLER_25_52
*914 FILLER_25_57
*915 FILLER_25_61
*916 FILLER_25_7
*917 FILLER_25_78
*918 FILLER_25_89
*919 FILLER_26_11
*920 FILLER_26_121
*921 FILLER_26_128
*922 FILLER_26_141
*923 FILLER_26_152
*924 FILLER_26_164
*925 FILLER_26_176
*926 FILLER_26_188
*927 FILLER_26_197
*928 FILLER_26_209
*929 FILLER_26_21
*930 FILLER_26_221
*931 FILLER_26_233
*932 FILLER_26_245
*933 FILLER_26_251
*934 FILLER_26_253
*935 FILLER_26_265
*936 FILLER_26_27
*937 FILLER_26_277
*938 FILLER_26_289
*939 FILLER_26_29
*940 FILLER_26_297
*941 FILLER_26_3
*942 FILLER_26_33
*943 FILLER_26_40
*944 FILLER_26_44
*945 FILLER_26_65
*946 FILLER_26_72
*947 FILLER_26_79
*948 FILLER_26_83
*949 FILLER_26_85
*950 FILLER_26_97
*951 FILLER_27_107
*952 FILLER_27_11
*953 FILLER_27_111
*954 FILLER_27_129
*955 FILLER_27_153
*956 FILLER_27_160
*957 FILLER_27_169
*958 FILLER_27_181
*959 FILLER_27_193
*960 FILLER_27_20
*961 FILLER_27_205
*962 FILLER_27_217
*963 FILLER_27_223
*964 FILLER_27_225
*965 FILLER_27_237
*966 FILLER_27_249
*967 FILLER_27_261
*968 FILLER_27_273
*969 FILLER_27_279
*970 FILLER_27_28
*971 FILLER_27_281
*972 FILLER_27_293
*973 FILLER_27_3
*974 FILLER_27_36
*975 FILLER_27_52
*976 FILLER_27_57
*977 FILLER_27_61
*978 FILLER_27_7
*979 FILLER_27_81
*980 FILLER_27_95
*981 FILLER_28_101
*982 FILLER_28_113
*983 FILLER_28_121
*984 FILLER_28_128
*985 FILLER_28_13
*986 FILLER_28_136
*987 FILLER_28_141
*988 FILLER_28_154
*989 FILLER_28_166
*990 FILLER_28_17
*991 FILLER_28_178
*992 FILLER_28_190
*993 FILLER_28_197
*994 FILLER_28_209
*995 FILLER_28_221
*996 FILLER_28_233
*997 FILLER_28_24
*998 FILLER_28_245
*999 FILLER_28_251
*1000 FILLER_28_253
*1001 FILLER_28_265
*1002 FILLER_28_277
*1003 FILLER_28_289
*1004 FILLER_28_297
*1005 FILLER_28_3
*1006 FILLER_28_39
*1007 FILLER_28_47
*1008 FILLER_28_58
*1009 FILLER_28_66
*1010 FILLER_28_74
*1011 FILLER_28_80
*1012 FILLER_28_85
*1013 FILLER_28_9
*1014 FILLER_28_93
*1015 FILLER_29_111
*1016 FILLER_29_116
*1017 FILLER_29_133
*1018 FILLER_29_155
*1019 FILLER_29_167
*1020 FILLER_29_169
*1021 FILLER_29_181
*1022 FILLER_29_19
*1023 FILLER_29_193
*1024 FILLER_29_205
*1025 FILLER_29_217
*1026 FILLER_29_223
*1027 FILLER_29_225
*1028 FILLER_29_237
*1029 FILLER_29_249
*1030 FILLER_29_261
*1031 FILLER_29_273
*1032 FILLER_29_279
*1033 FILLER_29_281
*1034 FILLER_29_293
*1035 FILLER_29_35
*1036 FILLER_29_47
*1037 FILLER_29_55
*1038 FILLER_29_60
*1039 FILLER_29_80
*1040 FILLER_29_88
*1041 FILLER_29_92
*1042 FILLER_29_99
*1043 FILLER_2_101
*1044 FILLER_2_121
*1045 FILLER_2_136
*1046 FILLER_2_15
*1047 FILLER_2_157
*1048 FILLER_2_169
*1049 FILLER_2_181
*1050 FILLER_2_193
*1051 FILLER_2_197
*1052 FILLER_2_209
*1053 FILLER_2_221
*1054 FILLER_2_233
*1055 FILLER_2_245
*1056 FILLER_2_251
*1057 FILLER_2_253
*1058 FILLER_2_265
*1059 FILLER_2_27
*1060 FILLER_2_277
*1061 FILLER_2_289
*1062 FILLER_2_297
*1063 FILLER_2_3
*1064 FILLER_2_34
*1065 FILLER_2_42
*1066 FILLER_2_52
*1067 FILLER_2_56
*1068 FILLER_2_60
*1069 FILLER_2_80
*1070 FILLER_2_88
*1071 FILLER_30_116
*1072 FILLER_30_136
*1073 FILLER_30_14
*1074 FILLER_30_141
*1075 FILLER_30_146
*1076 FILLER_30_158
*1077 FILLER_30_170
*1078 FILLER_30_182
*1079 FILLER_30_19
*1080 FILLER_30_194
*1081 FILLER_30_197
*1082 FILLER_30_209
*1083 FILLER_30_221
*1084 FILLER_30_233
*1085 FILLER_30_245
*1086 FILLER_30_251
*1087 FILLER_30_253
*1088 FILLER_30_265
*1089 FILLER_30_27
*1090 FILLER_30_277
*1091 FILLER_30_289
*1092 FILLER_30_297
*1093 FILLER_30_35
*1094 FILLER_30_43
*1095 FILLER_30_49
*1096 FILLER_30_6
*1097 FILLER_30_60
*1098 FILLER_30_80
*1099 FILLER_30_85
*1100 FILLER_30_96
*1101 FILLER_31_106
*1102 FILLER_31_122
*1103 FILLER_31_129
*1104 FILLER_31_141
*1105 FILLER_31_153
*1106 FILLER_31_165
*1107 FILLER_31_169
*1108 FILLER_31_181
*1109 FILLER_31_193
*1110 FILLER_31_205
*1111 FILLER_31_217
*1112 FILLER_31_223
*1113 FILLER_31_225
*1114 FILLER_31_237
*1115 FILLER_31_249
*1116 FILLER_31_261
*1117 FILLER_31_273
*1118 FILLER_31_279
*1119 FILLER_31_281
*1120 FILLER_31_29
*1121 FILLER_31_293
*1122 FILLER_31_3
*1123 FILLER_31_35
*1124 FILLER_31_40
*1125 FILLER_31_52
*1126 FILLER_31_57
*1127 FILLER_31_69
*1128 FILLER_31_73
*1129 FILLER_31_82
*1130 FILLER_31_9
*1131 FILLER_32_110
*1132 FILLER_32_122
*1133 FILLER_32_133
*1134 FILLER_32_139
*1135 FILLER_32_157
*1136 FILLER_32_169
*1137 FILLER_32_181
*1138 FILLER_32_19
*1139 FILLER_32_193
*1140 FILLER_32_197
*1141 FILLER_32_209
*1142 FILLER_32_221
*1143 FILLER_32_233
*1144 FILLER_32_245
*1145 FILLER_32_251
*1146 FILLER_32_253
*1147 FILLER_32_265
*1148 FILLER_32_27
*1149 FILLER_32_277
*1150 FILLER_32_289
*1151 FILLER_32_29
*1152 FILLER_32_297
*1153 FILLER_32_36
*1154 FILLER_32_56
*1155 FILLER_32_76
*1156 FILLER_32_90
*1157 FILLER_32_98
*1158 FILLER_33_111
*1159 FILLER_33_129
*1160 FILLER_33_141
*1161 FILLER_33_145
*1162 FILLER_33_15
*1163 FILLER_33_157
*1164 FILLER_33_165
*1165 FILLER_33_169
*1166 FILLER_33_181
*1167 FILLER_33_193
*1168 FILLER_33_205
*1169 FILLER_33_21
*1170 FILLER_33_217
*1171 FILLER_33_223
*1172 FILLER_33_225
*1173 FILLER_33_237
*1174 FILLER_33_249
*1175 FILLER_33_261
*1176 FILLER_33_27
*1177 FILLER_33_273
*1178 FILLER_33_279
*1179 FILLER_33_281
*1180 FILLER_33_293
*1181 FILLER_33_3
*1182 FILLER_33_36
*1183 FILLER_33_40
*1184 FILLER_33_50
*1185 FILLER_33_57
*1186 FILLER_33_61
*1187 FILLER_33_66
*1188 FILLER_33_7
*1189 FILLER_33_78
*1190 FILLER_33_83
*1191 FILLER_33_91
*1192 FILLER_33_99
*1193 FILLER_34_115
*1194 FILLER_34_122
*1195 FILLER_34_126
*1196 FILLER_34_136
*1197 FILLER_34_141
*1198 FILLER_34_153
*1199 FILLER_34_165
*1200 FILLER_34_177
*1201 FILLER_34_189
*1202 FILLER_34_19
*1203 FILLER_34_195
*1204 FILLER_34_197
*1205 FILLER_34_209
*1206 FILLER_34_221
*1207 FILLER_34_233
*1208 FILLER_34_245
*1209 FILLER_34_251
*1210 FILLER_34_253
*1211 FILLER_34_265
*1212 FILLER_34_27
*1213 FILLER_34_277
*1214 FILLER_34_289
*1215 FILLER_34_29
*1216 FILLER_34_297
*1217 FILLER_34_36
*1218 FILLER_34_42
*1219 FILLER_34_46
*1220 FILLER_34_52
*1221 FILLER_34_69
*1222 FILLER_34_80
*1223 FILLER_34_85
*1224 FILLER_34_91
*1225 FILLER_34_95
*1226 FILLER_35_104
*1227 FILLER_35_113
*1228 FILLER_35_117
*1229 FILLER_35_134
*1230 FILLER_35_154
*1231 FILLER_35_166
*1232 FILLER_35_169
*1233 FILLER_35_181
*1234 FILLER_35_193
*1235 FILLER_35_205
*1236 FILLER_35_217
*1237 FILLER_35_223
*1238 FILLER_35_225
*1239 FILLER_35_237
*1240 FILLER_35_249
*1241 FILLER_35_261
*1242 FILLER_35_273
*1243 FILLER_35_279
*1244 FILLER_35_281
*1245 FILLER_35_293
*1246 FILLER_35_3
*1247 FILLER_35_31
*1248 FILLER_35_51
*1249 FILLER_35_55
*1250 FILLER_35_73
*1251 FILLER_35_79
*1252 FILLER_35_89
*1253 FILLER_35_97
*1254 FILLER_36_117
*1255 FILLER_36_128
*1256 FILLER_36_141
*1257 FILLER_36_145
*1258 FILLER_36_15
*1259 FILLER_36_157
*1260 FILLER_36_169
*1261 FILLER_36_181
*1262 FILLER_36_193
*1263 FILLER_36_197
*1264 FILLER_36_209
*1265 FILLER_36_221
*1266 FILLER_36_233
*1267 FILLER_36_24
*1268 FILLER_36_245
*1269 FILLER_36_251
*1270 FILLER_36_253
*1271 FILLER_36_265
*1272 FILLER_36_277
*1273 FILLER_36_289
*1274 FILLER_36_297
*1275 FILLER_36_3
*1276 FILLER_36_32
*1277 FILLER_36_38
*1278 FILLER_36_42
*1279 FILLER_36_54
*1280 FILLER_36_68
*1281 FILLER_36_80
*1282 FILLER_36_85
*1283 FILLER_36_89
*1284 FILLER_36_97
*1285 FILLER_37_109
*1286 FILLER_37_113
*1287 FILLER_37_125
*1288 FILLER_37_137
*1289 FILLER_37_149
*1290 FILLER_37_161
*1291 FILLER_37_167
*1292 FILLER_37_169
*1293 FILLER_37_181
*1294 FILLER_37_193
*1295 FILLER_37_205
*1296 FILLER_37_21
*1297 FILLER_37_217
*1298 FILLER_37_223
*1299 FILLER_37_225
*1300 FILLER_37_237
*1301 FILLER_37_249
*1302 FILLER_37_261
*1303 FILLER_37_273
*1304 FILLER_37_279
*1305 FILLER_37_281
*1306 FILLER_37_293
*1307 FILLER_37_3
*1308 FILLER_37_33
*1309 FILLER_37_45
*1310 FILLER_37_53
*1311 FILLER_37_57
*1312 FILLER_37_69
*1313 FILLER_37_77
*1314 FILLER_37_88
*1315 FILLER_37_9
*1316 FILLER_37_97
*1317 FILLER_38_109
*1318 FILLER_38_121
*1319 FILLER_38_133
*1320 FILLER_38_139
*1321 FILLER_38_141
*1322 FILLER_38_15
*1323 FILLER_38_153
*1324 FILLER_38_165
*1325 FILLER_38_177
*1326 FILLER_38_189
*1327 FILLER_38_195
*1328 FILLER_38_197
*1329 FILLER_38_209
*1330 FILLER_38_221
*1331 FILLER_38_233
*1332 FILLER_38_245
*1333 FILLER_38_251
*1334 FILLER_38_253
*1335 FILLER_38_265
*1336 FILLER_38_27
*1337 FILLER_38_277
*1338 FILLER_38_289
*1339 FILLER_38_29
*1340 FILLER_38_297
*1341 FILLER_38_3
*1342 FILLER_38_41
*1343 FILLER_38_53
*1344 FILLER_38_65
*1345 FILLER_38_77
*1346 FILLER_38_83
*1347 FILLER_38_85
*1348 FILLER_38_97
*1349 FILLER_39_105
*1350 FILLER_39_111
*1351 FILLER_39_113
*1352 FILLER_39_125
*1353 FILLER_39_137
*1354 FILLER_39_149
*1355 FILLER_39_15
*1356 FILLER_39_161
*1357 FILLER_39_167
*1358 FILLER_39_169
*1359 FILLER_39_181
*1360 FILLER_39_193
*1361 FILLER_39_205
*1362 FILLER_39_217
*1363 FILLER_39_223
*1364 FILLER_39_225
*1365 FILLER_39_237
*1366 FILLER_39_249
*1367 FILLER_39_261
*1368 FILLER_39_27
*1369 FILLER_39_273
*1370 FILLER_39_279
*1371 FILLER_39_281
*1372 FILLER_39_293
*1373 FILLER_39_3
*1374 FILLER_39_39
*1375 FILLER_39_51
*1376 FILLER_39_55
*1377 FILLER_39_57
*1378 FILLER_39_69
*1379 FILLER_39_81
*1380 FILLER_39_93
*1381 FILLER_3_100
*1382 FILLER_3_116
*1383 FILLER_3_129
*1384 FILLER_3_136
*1385 FILLER_3_15
*1386 FILLER_3_153
*1387 FILLER_3_165
*1388 FILLER_3_169
*1389 FILLER_3_181
*1390 FILLER_3_193
*1391 FILLER_3_205
*1392 FILLER_3_217
*1393 FILLER_3_223
*1394 FILLER_3_225
*1395 FILLER_3_23
*1396 FILLER_3_237
*1397 FILLER_3_249
*1398 FILLER_3_261
*1399 FILLER_3_273
*1400 FILLER_3_279
*1401 FILLER_3_281
*1402 FILLER_3_293
*1403 FILLER_3_3
*1404 FILLER_3_34
*1405 FILLER_3_45
*1406 FILLER_3_52
*1407 FILLER_3_60
*1408 FILLER_3_73
*1409 FILLER_3_82
*1410 FILLER_3_93
*1411 FILLER_40_109
*1412 FILLER_40_121
*1413 FILLER_40_133
*1414 FILLER_40_139
*1415 FILLER_40_141
*1416 FILLER_40_15
*1417 FILLER_40_153
*1418 FILLER_40_165
*1419 FILLER_40_177
*1420 FILLER_40_189
*1421 FILLER_40_195
*1422 FILLER_40_197
*1423 FILLER_40_209
*1424 FILLER_40_221
*1425 FILLER_40_233
*1426 FILLER_40_245
*1427 FILLER_40_251
*1428 FILLER_40_253
*1429 FILLER_40_265
*1430 FILLER_40_27
*1431 FILLER_40_277
*1432 FILLER_40_289
*1433 FILLER_40_29
*1434 FILLER_40_297
*1435 FILLER_40_3
*1436 FILLER_40_41
*1437 FILLER_40_53
*1438 FILLER_40_65
*1439 FILLER_40_77
*1440 FILLER_40_83
*1441 FILLER_40_85
*1442 FILLER_40_97
*1443 FILLER_41_105
*1444 FILLER_41_111
*1445 FILLER_41_113
*1446 FILLER_41_125
*1447 FILLER_41_137
*1448 FILLER_41_149
*1449 FILLER_41_15
*1450 FILLER_41_161
*1451 FILLER_41_167
*1452 FILLER_41_169
*1453 FILLER_41_181
*1454 FILLER_41_193
*1455 FILLER_41_205
*1456 FILLER_41_217
*1457 FILLER_41_223
*1458 FILLER_41_225
*1459 FILLER_41_237
*1460 FILLER_41_249
*1461 FILLER_41_261
*1462 FILLER_41_27
*1463 FILLER_41_273
*1464 FILLER_41_279
*1465 FILLER_41_281
*1466 FILLER_41_293
*1467 FILLER_41_3
*1468 FILLER_41_37
*1469 FILLER_41_49
*1470 FILLER_41_55
*1471 FILLER_41_57
*1472 FILLER_41_69
*1473 FILLER_41_81
*1474 FILLER_41_93
*1475 FILLER_42_109
*1476 FILLER_42_121
*1477 FILLER_42_133
*1478 FILLER_42_139
*1479 FILLER_42_141
*1480 FILLER_42_15
*1481 FILLER_42_153
*1482 FILLER_42_165
*1483 FILLER_42_177
*1484 FILLER_42_189
*1485 FILLER_42_195
*1486 FILLER_42_197
*1487 FILLER_42_209
*1488 FILLER_42_221
*1489 FILLER_42_233
*1490 FILLER_42_245
*1491 FILLER_42_251
*1492 FILLER_42_253
*1493 FILLER_42_265
*1494 FILLER_42_27
*1495 FILLER_42_277
*1496 FILLER_42_289
*1497 FILLER_42_29
*1498 FILLER_42_297
*1499 FILLER_42_3
*1500 FILLER_42_41
*1501 FILLER_42_53
*1502 FILLER_42_65
*1503 FILLER_42_77
*1504 FILLER_42_83
*1505 FILLER_42_85
*1506 FILLER_42_97
*1507 FILLER_43_105
*1508 FILLER_43_111
*1509 FILLER_43_113
*1510 FILLER_43_125
*1511 FILLER_43_137
*1512 FILLER_43_149
*1513 FILLER_43_15
*1514 FILLER_43_161
*1515 FILLER_43_167
*1516 FILLER_43_169
*1517 FILLER_43_181
*1518 FILLER_43_193
*1519 FILLER_43_205
*1520 FILLER_43_217
*1521 FILLER_43_223
*1522 FILLER_43_225
*1523 FILLER_43_237
*1524 FILLER_43_249
*1525 FILLER_43_261
*1526 FILLER_43_27
*1527 FILLER_43_273
*1528 FILLER_43_279
*1529 FILLER_43_281
*1530 FILLER_43_293
*1531 FILLER_43_3
*1532 FILLER_43_39
*1533 FILLER_43_51
*1534 FILLER_43_55
*1535 FILLER_43_57
*1536 FILLER_43_69
*1537 FILLER_43_81
*1538 FILLER_43_93
*1539 FILLER_44_109
*1540 FILLER_44_121
*1541 FILLER_44_133
*1542 FILLER_44_139
*1543 FILLER_44_141
*1544 FILLER_44_15
*1545 FILLER_44_153
*1546 FILLER_44_165
*1547 FILLER_44_177
*1548 FILLER_44_189
*1549 FILLER_44_195
*1550 FILLER_44_197
*1551 FILLER_44_209
*1552 FILLER_44_221
*1553 FILLER_44_233
*1554 FILLER_44_245
*1555 FILLER_44_251
*1556 FILLER_44_253
*1557 FILLER_44_265
*1558 FILLER_44_27
*1559 FILLER_44_277
*1560 FILLER_44_289
*1561 FILLER_44_29
*1562 FILLER_44_297
*1563 FILLER_44_3
*1564 FILLER_44_41
*1565 FILLER_44_53
*1566 FILLER_44_65
*1567 FILLER_44_77
*1568 FILLER_44_83
*1569 FILLER_44_85
*1570 FILLER_44_97
*1571 FILLER_45_105
*1572 FILLER_45_111
*1573 FILLER_45_113
*1574 FILLER_45_125
*1575 FILLER_45_137
*1576 FILLER_45_149
*1577 FILLER_45_15
*1578 FILLER_45_161
*1579 FILLER_45_167
*1580 FILLER_45_169
*1581 FILLER_45_181
*1582 FILLER_45_193
*1583 FILLER_45_205
*1584 FILLER_45_217
*1585 FILLER_45_223
*1586 FILLER_45_225
*1587 FILLER_45_237
*1588 FILLER_45_249
*1589 FILLER_45_261
*1590 FILLER_45_27
*1591 FILLER_45_273
*1592 FILLER_45_279
*1593 FILLER_45_281
*1594 FILLER_45_293
*1595 FILLER_45_3
*1596 FILLER_45_39
*1597 FILLER_45_51
*1598 FILLER_45_55
*1599 FILLER_45_57
*1600 FILLER_45_69
*1601 FILLER_45_81
*1602 FILLER_45_93
*1603 FILLER_46_109
*1604 FILLER_46_121
*1605 FILLER_46_133
*1606 FILLER_46_139
*1607 FILLER_46_141
*1608 FILLER_46_15
*1609 FILLER_46_153
*1610 FILLER_46_165
*1611 FILLER_46_177
*1612 FILLER_46_189
*1613 FILLER_46_195
*1614 FILLER_46_197
*1615 FILLER_46_209
*1616 FILLER_46_221
*1617 FILLER_46_233
*1618 FILLER_46_245
*1619 FILLER_46_251
*1620 FILLER_46_253
*1621 FILLER_46_265
*1622 FILLER_46_27
*1623 FILLER_46_277
*1624 FILLER_46_289
*1625 FILLER_46_29
*1626 FILLER_46_297
*1627 FILLER_46_3
*1628 FILLER_46_41
*1629 FILLER_46_53
*1630 FILLER_46_65
*1631 FILLER_46_77
*1632 FILLER_46_83
*1633 FILLER_46_85
*1634 FILLER_46_97
*1635 FILLER_47_105
*1636 FILLER_47_111
*1637 FILLER_47_113
*1638 FILLER_47_125
*1639 FILLER_47_137
*1640 FILLER_47_149
*1641 FILLER_47_15
*1642 FILLER_47_161
*1643 FILLER_47_167
*1644 FILLER_47_169
*1645 FILLER_47_181
*1646 FILLER_47_193
*1647 FILLER_47_205
*1648 FILLER_47_217
*1649 FILLER_47_223
*1650 FILLER_47_225
*1651 FILLER_47_237
*1652 FILLER_47_249
*1653 FILLER_47_261
*1654 FILLER_47_27
*1655 FILLER_47_273
*1656 FILLER_47_279
*1657 FILLER_47_281
*1658 FILLER_47_293
*1659 FILLER_47_3
*1660 FILLER_47_39
*1661 FILLER_47_51
*1662 FILLER_47_55
*1663 FILLER_47_57
*1664 FILLER_47_69
*1665 FILLER_47_81
*1666 FILLER_47_93
*1667 FILLER_48_109
*1668 FILLER_48_121
*1669 FILLER_48_133
*1670 FILLER_48_139
*1671 FILLER_48_141
*1672 FILLER_48_15
*1673 FILLER_48_153
*1674 FILLER_48_165
*1675 FILLER_48_177
*1676 FILLER_48_189
*1677 FILLER_48_195
*1678 FILLER_48_197
*1679 FILLER_48_209
*1680 FILLER_48_221
*1681 FILLER_48_233
*1682 FILLER_48_245
*1683 FILLER_48_251
*1684 FILLER_48_253
*1685 FILLER_48_265
*1686 FILLER_48_27
*1687 FILLER_48_277
*1688 FILLER_48_289
*1689 FILLER_48_29
*1690 FILLER_48_297
*1691 FILLER_48_3