*SPEF "ieee 1481-1999"
*DESIGN "msaghir_top_level"
*DATE "11:11:11 Fri 11 11, 1111"
*VENDOR "OpenRCX"
*PROGRAM "Parallel Extraction"
*VERSION "1.0"
*DESIGN_FLOW "NAME_SCOPE LOCAL" "PIN_CAP NONE"
*DIVIDER /
*DELIMITER :
*BUS_DELIMITER []
*T_UNIT 1 NS
*C_UNIT 1 PF
*R_UNIT 1 OHM
*L_UNIT 1 HENRY

*NAME_MAP
*1 io_in[0]
*2 io_in[1]
*3 io_in[2]
*4 io_in[3]
*5 io_in[4]
*6 io_in[5]
*7 io_in[6]
*8 io_in[7]
*9 io_out[0]
*10 io_out[1]
*11 io_out[2]
*12 io_out[3]
*13 io_out[4]
*14 io_out[5]
*15 io_out[6]
*16 net8
*19 _000_
*20 _001_
*21 _002_
*22 _003_
*23 _004_
*24 _005_
*25 _006_
*26 _007_
*27 _008_
*28 _009_
*29 _010_
*30 _011_
*31 _012_
*32 _013_
*33 _014_
*34 _015_
*35 _016_
*36 _017_
*37 _018_
*38 _019_
*39 _020_
*40 _021_
*41 _022_
*42 _023_
*43 _024_
*44 _025_
*45 _026_
*46 _027_
*47 _028_
*48 _029_
*49 _030_
*50 _031_
*51 _032_
*52 _033_
*53 _034_
*54 _035_
*55 _036_
*56 _037_
*57 _038_
*58 _039_
*59 _040_
*60 _041_
*61 _042_
*62 _043_
*63 _044_
*64 _045_
*65 _046_
*66 _047_
*67 _048_
*68 _049_
*69 _050_
*70 _051_
*71 _052_
*72 _053_
*73 _054_
*74 _055_
*75 _056_
*76 _057_
*77 _058_
*78 _059_
*79 _060_
*80 _061_
*81 _062_
*82 _063_
*83 _064_
*84 _065_
*85 _066_
*86 _067_
*87 _068_
*88 _069_
*89 _070_
*90 _071_
*91 _072_
*92 _073_
*93 _074_
*94 _075_
*95 _076_
*96 _077_
*97 _078_
*98 _079_
*99 _080_
*100 _081_
*101 _082_
*102 _083_
*103 _084_
*104 _085_
*105 _086_
*106 _087_
*107 _088_
*108 _089_
*109 _090_
*110 _091_
*111 _092_
*112 _093_
*113 _094_
*114 _095_
*115 _096_
*116 _097_
*117 _098_
*118 _099_
*119 _100_
*120 _101_
*121 _102_
*122 _103_
*123 _104_
*124 _105_
*125 _106_
*126 _107_
*127 _108_
*128 _109_
*129 _110_
*130 _111_
*131 _112_
*132 _113_
*133 _114_
*134 _115_
*135 _116_
*136 _117_
*137 _118_
*138 _119_
*139 _120_
*140 _121_
*141 _122_
*142 _123_
*143 _124_
*144 _125_
*145 _126_
*146 _127_
*147 _128_
*148 _129_
*149 _130_
*150 _131_
*151 _132_
*152 _133_
*153 _134_
*154 _135_
*155 _136_
*156 _137_
*157 _138_
*158 _139_
*159 _140_
*160 _141_
*161 _142_
*162 _143_
*163 _144_
*164 _145_
*165 _146_
*166 _147_
*167 _148_
*168 _149_
*169 _150_
*170 _151_
*171 _152_
*172 _153_
*173 _154_
*174 _155_
*175 _156_
*176 _157_
*177 _158_
*178 _159_
*179 _160_
*180 _161_
*181 _162_
*182 _163_
*183 _164_
*184 _165_
*185 _166_
*186 _167_
*187 _168_
*188 _169_
*189 _170_
*190 _171_
*191 _172_
*192 _173_
*193 _174_
*194 _175_
*195 _176_
*196 _177_
*197 _178_
*198 _179_
*199 _180_
*200 _181_
*201 _182_
*202 _183_
*203 _184_
*204 _185_
*205 _186_
*206 _187_
*207 _188_
*208 _189_
*209 _190_
*210 _191_
*211 _192_
*212 _193_
*213 _194_
*214 _195_
*215 _196_
*216 _197_
*217 _198_
*218 _199_
*219 _200_
*220 _201_
*221 _202_
*222 _203_
*223 _204_
*224 _205_
*225 _206_
*226 _207_
*227 _208_
*228 _209_
*229 _210_
*230 _211_
*231 _212_
*232 _213_
*233 _214_
*234 _215_
*235 _216_
*236 _217_
*237 _218_
*238 _219_
*239 _220_
*240 _221_
*241 _222_
*242 _223_
*243 _224_
*244 b0\.i_clk2Hz
*245 b1\.u0\.o_count\[1\]
*246 b1\.u0\.o_count\[2\]
*247 b1\.u0\.r_delay_counter\[0\]
*248 b1\.u0\.r_delay_counter\[10\]
*249 b1\.u0\.r_delay_counter\[11\]
*250 b1\.u0\.r_delay_counter\[12\]
*251 b1\.u0\.r_delay_counter\[1\]
*252 b1\.u0\.r_delay_counter\[2\]
*253 b1\.u0\.r_delay_counter\[3\]
*254 b1\.u0\.r_delay_counter\[4\]
*255 b1\.u0\.r_delay_counter\[5\]
*256 b1\.u0\.r_delay_counter\[6\]
*257 b1\.u0\.r_delay_counter\[7\]
*258 b1\.u0\.r_delay_counter\[8\]
*259 b1\.u0\.r_delay_counter\[9\]
*260 clknet_0_io_in[0]
*261 clknet_1_0__leaf_io_in[0]
*262 clknet_1_1__leaf_io_in[0]
*263 net1
*264 net2
*265 net3
*266 net4
*267 net5
*268 net6
*269 net7
*270 ANTENNA_0
*271 ANTENNA_1
*272 ANTENNA_2
*273 FILLER_0_102
*274 FILLER_0_110
*275 FILLER_0_113
*276 FILLER_0_125
*277 FILLER_0_137
*278 FILLER_0_141
*279 FILLER_0_153
*280 FILLER_0_165
*281 FILLER_0_169
*282 FILLER_0_181
*283 FILLER_0_193
*284 FILLER_0_197
*285 FILLER_0_209
*286 FILLER_0_221
*287 FILLER_0_225
*288 FILLER_0_237
*289 FILLER_0_24
*290 FILLER_0_249
*291 FILLER_0_253
*292 FILLER_0_265
*293 FILLER_0_277
*294 FILLER_0_281
*295 FILLER_0_29
*296 FILLER_0_293
*297 FILLER_0_3
*298 FILLER_0_33
*299 FILLER_0_50
*300 FILLER_0_73
*301 FILLER_0_77
*302 FILLER_0_83
*303 FILLER_0_90
*304 FILLER_10_101
*305 FILLER_10_113
*306 FILLER_10_125
*307 FILLER_10_137
*308 FILLER_10_141
*309 FILLER_10_153
*310 FILLER_10_165
*311 FILLER_10_177
*312 FILLER_10_189
*313 FILLER_10_195
*314 FILLER_10_197
*315 FILLER_10_209
*316 FILLER_10_21
*317 FILLER_10_221
*318 FILLER_10_233
*319 FILLER_10_245
*320 FILLER_10_251
*321 FILLER_10_253
*322 FILLER_10_265
*323 FILLER_10_27
*324 FILLER_10_277
*325 FILLER_10_289
*326 FILLER_10_29
*327 FILLER_10_297
*328 FILLER_10_3
*329 FILLER_10_41
*330 FILLER_10_53
*331 FILLER_10_65
*332 FILLER_10_77
*333 FILLER_10_83
*334 FILLER_10_85
*335 FILLER_11_109
*336 FILLER_11_113
*337 FILLER_11_125
*338 FILLER_11_137
*339 FILLER_11_149
*340 FILLER_11_15
*341 FILLER_11_161
*342 FILLER_11_167
*343 FILLER_11_169
*344 FILLER_11_181
*345 FILLER_11_193
*346 FILLER_11_201
*347 FILLER_11_208
*348 FILLER_11_220
*349 FILLER_11_225
*350 FILLER_11_237
*351 FILLER_11_249
*352 FILLER_11_261
*353 FILLER_11_27
*354 FILLER_11_273
*355 FILLER_11_279
*356 FILLER_11_281
*357 FILLER_11_293
*358 FILLER_11_3
*359 FILLER_11_39
*360 FILLER_11_43
*361 FILLER_11_47
*362 FILLER_11_55
*363 FILLER_11_57
*364 FILLER_11_69
*365 FILLER_11_77
*366 FILLER_11_85
*367 FILLER_11_97
*368 FILLER_12_109
*369 FILLER_12_121
*370 FILLER_12_13
*371 FILLER_12_133
*372 FILLER_12_139
*373 FILLER_12_141
*374 FILLER_12_153
*375 FILLER_12_165
*376 FILLER_12_177
*377 FILLER_12_189
*378 FILLER_12_195
*379 FILLER_12_197
*380 FILLER_12_209
*381 FILLER_12_221
*382 FILLER_12_233
*383 FILLER_12_245
*384 FILLER_12_25
*385 FILLER_12_251
*386 FILLER_12_253
*387 FILLER_12_265
*388 FILLER_12_277
*389 FILLER_12_289
*390 FILLER_12_29
*391 FILLER_12_297
*392 FILLER_12_41
*393 FILLER_12_53
*394 FILLER_12_65
*395 FILLER_12_77
*396 FILLER_12_83
*397 FILLER_12_85
*398 FILLER_12_97
*399 FILLER_13_101
*400 FILLER_13_108
*401 FILLER_13_113
*402 FILLER_13_125
*403 FILLER_13_137
*404 FILLER_13_149
*405 FILLER_13_15
*406 FILLER_13_161
*407 FILLER_13_167
*408 FILLER_13_169
*409 FILLER_13_181
*410 FILLER_13_190
*411 FILLER_13_202
*412 FILLER_13_214
*413 FILLER_13_222
*414 FILLER_13_229
*415 FILLER_13_241
*416 FILLER_13_249
*417 FILLER_13_257
*418 FILLER_13_269
*419 FILLER_13_27
*420 FILLER_13_277
*421 FILLER_13_281
*422 FILLER_13_293
*423 FILLER_13_3
*424 FILLER_13_31
*425 FILLER_13_39
*426 FILLER_13_51
*427 FILLER_13_55
*428 FILLER_13_57
*429 FILLER_13_65
*430 FILLER_13_72
*431 FILLER_13_84
*432 FILLER_13_92
*433 FILLER_14_105
*434 FILLER_14_110
*435 FILLER_14_117
*436 FILLER_14_129
*437 FILLER_14_137
*438 FILLER_14_141
*439 FILLER_14_153
*440 FILLER_14_16
*441 FILLER_14_165
*442 FILLER_14_177
*443 FILLER_14_189
*444 FILLER_14_195
*445 FILLER_14_197
*446 FILLER_14_209
*447 FILLER_14_221
*448 FILLER_14_233
*449 FILLER_14_245
*450 FILLER_14_251
*451 FILLER_14_253
*452 FILLER_14_265
*453 FILLER_14_277
*454 FILLER_14_289
*455 FILLER_14_297
*456 FILLER_14_3
*457 FILLER_14_39
*458 FILLER_14_48
*459 FILLER_14_60
*460 FILLER_14_68
*461 FILLER_14_74
*462 FILLER_14_82
*463 FILLER_14_85
*464 FILLER_14_9
*465 FILLER_14_97
*466 FILLER_15_103
*467 FILLER_15_111
*468 FILLER_15_113
*469 FILLER_15_12
*470 FILLER_15_125
*471 FILLER_15_137
*472 FILLER_15_149
*473 FILLER_15_161
*474 FILLER_15_167
*475 FILLER_15_169
*476 FILLER_15_181
*477 FILLER_15_19
*478 FILLER_15_193
*479 FILLER_15_205
*480 FILLER_15_217
*481 FILLER_15_223
*482 FILLER_15_225
*483 FILLER_15_237
*484 FILLER_15_249
*485 FILLER_15_261
*486 FILLER_15_273
*487 FILLER_15_279
*488 FILLER_15_281
*489 FILLER_15_293
*490 FILLER_15_3
*491 FILLER_15_31
*492 FILLER_15_37
*493 FILLER_15_41
*494 FILLER_15_53
*495 FILLER_15_57
*496 FILLER_15_64
*497 FILLER_15_72
*498 FILLER_15_79
*499 FILLER_15_91
*500 FILLER_16_109
*501 FILLER_16_12
*502 FILLER_16_121
*503 FILLER_16_133
*504 FILLER_16_139
*505 FILLER_16_141
*506 FILLER_16_153
*507 FILLER_16_165
*508 FILLER_16_177
*509 FILLER_16_189
*510 FILLER_16_19
*511 FILLER_16_195
*512 FILLER_16_197
*513 FILLER_16_209
*514 FILLER_16_221
*515 FILLER_16_233
*516 FILLER_16_245
*517 FILLER_16_251
*518 FILLER_16_253
*519 FILLER_16_265
*520 FILLER_16_27
*521 FILLER_16_277
*522 FILLER_16_289
*523 FILLER_16_297
*524 FILLER_16_3
*525 FILLER_16_35
*526 FILLER_16_47
*527 FILLER_16_62
*528 FILLER_16_70
*529 FILLER_16_79
*530 FILLER_16_83
*531 FILLER_16_85
*532 FILLER_16_97
*533 FILLER_17_105
*534 FILLER_17_111
*535 FILLER_17_113
*536 FILLER_17_125
*537 FILLER_17_137
*538 FILLER_17_149
*539 FILLER_17_161
*540 FILLER_17_167
*541 FILLER_17_169
*542 FILLER_17_17
*543 FILLER_17_181
*544 FILLER_17_193
*545 FILLER_17_205
*546 FILLER_17_217
*547 FILLER_17_223
*548 FILLER_17_225
*549 FILLER_17_237
*550 FILLER_17_24
*551 FILLER_17_249
*552 FILLER_17_261
*553 FILLER_17_273
*554 FILLER_17_279
*555 FILLER_17_281
*556 FILLER_17_293
*557 FILLER_17_3
*558 FILLER_17_32
*559 FILLER_17_38
*560 FILLER_17_49
*561 FILLER_17_55
*562 FILLER_17_57
*563 FILLER_17_67
*564 FILLER_17_82
*565 FILLER_17_90
*566 FILLER_17_98
*567 FILLER_18_10
*568 FILLER_18_104
*569 FILLER_18_116
*570 FILLER_18_128
*571 FILLER_18_14
*572 FILLER_18_141
*573 FILLER_18_153
*574 FILLER_18_165
*575 FILLER_18_173
*576 FILLER_18_177
*577 FILLER_18_18
*578 FILLER_18_189
*579 FILLER_18_195
*580 FILLER_18_197
*581 FILLER_18_209
*582 FILLER_18_221
*583 FILLER_18_233
*584 FILLER_18_245
*585 FILLER_18_251
*586 FILLER_18_253
*587 FILLER_18_26
*588 FILLER_18_265
*589 FILLER_18_277
*590 FILLER_18_289
*591 FILLER_18_29
*592 FILLER_18_297
*593 FILLER_18_3
*594 FILLER_18_33
*595 FILLER_18_41
*596 FILLER_18_47
*597 FILLER_18_55
*598 FILLER_18_67
*599 FILLER_18_71
*600 FILLER_18_76
*601 FILLER_18_89
*602 FILLER_18_97
*603 FILLER_19_105
*604 FILLER_19_111
*605 FILLER_19_113
*606 FILLER_19_125
*607 FILLER_19_137
*608 FILLER_19_149
*609 FILLER_19_16
*610 FILLER_19_161
*611 FILLER_19_167
*612 FILLER_19_169
*613 FILLER_19_181
*614 FILLER_19_193
*615 FILLER_19_205
*616 FILLER_19_217
*617 FILLER_19_223
*618 FILLER_19_225
*619 FILLER_19_237
*620 FILLER_19_249
*621 FILLER_19_261
*622 FILLER_19_273
*623 FILLER_19_279
*624 FILLER_19_28
*625 FILLER_19_281
*626 FILLER_19_293
*627 FILLER_19_3
*628 FILLER_19_35
*629 FILLER_19_47
*630 FILLER_19_55
*631 FILLER_19_57
*632 FILLER_19_69
*633 FILLER_19_81
*634 FILLER_19_93
*635 FILLER_1_100
*636 FILLER_1_120
*637 FILLER_1_127
*638 FILLER_1_139
*639 FILLER_1_151
*640 FILLER_1_163
*641 FILLER_1_167
*642 FILLER_1_169
*643 FILLER_1_181
*644 FILLER_1_193
*645 FILLER_1_205
*646 FILLER_1_217
*647 FILLER_1_223
*648 FILLER_1_225
*649 FILLER_1_23
*650 FILLER_1_237
*651 FILLER_1_249
*652 FILLER_1_261
*653 FILLER_1_27
*654 FILLER_1_273
*655 FILLER_1_279
*656 FILLER_1_281
*657 FILLER_1_293
*658 FILLER_1_3
*659 FILLER_1_45
*660 FILLER_1_52
*661 FILLER_1_57
*662 FILLER_1_61
*663 FILLER_1_69
*664 FILLER_1_76
*665 FILLER_1_80
*666 FILLER_1_89
*667 FILLER_1_95
*668 FILLER_20_109
*669 FILLER_20_12
*670 FILLER_20_121
*671 FILLER_20_133
*672 FILLER_20_139
*673 FILLER_20_144
*674 FILLER_20_156
*675 FILLER_20_168
*676 FILLER_20_180
*677 FILLER_20_192
*678 FILLER_20_197
*679 FILLER_20_209
*680 FILLER_20_221
*681 FILLER_20_23
*682 FILLER_20_233
*683 FILLER_20_245
*684 FILLER_20_251
*685 FILLER_20_253
*686 FILLER_20_265
*687 FILLER_20_27
*688 FILLER_20_277
*689 FILLER_20_289
*690 FILLER_20_29
*691 FILLER_20_297
*692 FILLER_20_41
*693 FILLER_20_49
*694 FILLER_20_54
*695 FILLER_20_6
*696 FILLER_20_68
*697 FILLER_20_80
*698 FILLER_20_85
*699 FILLER_20_97
*700 FILLER_21_105
*701 FILLER_21_11
*702 FILLER_21_111
*703 FILLER_21_113
*704 FILLER_21_125
*705 FILLER_21_133
*706 FILLER_21_149
*707 FILLER_21_156
*708 FILLER_21_169
*709 FILLER_21_181
*710 FILLER_21_193
*711 FILLER_21_20
*712 FILLER_21_205
*713 FILLER_21_217
*714 FILLER_21_223
*715 FILLER_21_225
*716 FILLER_21_237
*717 FILLER_21_249
*718 FILLER_21_261
*719 FILLER_21_273
*720 FILLER_21_279
*721 FILLER_21_28
*722 FILLER_21_281
*723 FILLER_21_293
*724 FILLER_21_3
*725 FILLER_21_43
*726 FILLER_21_51
*727 FILLER_21_55
*728 FILLER_21_57
*729 FILLER_21_65
*730 FILLER_21_70
*731 FILLER_21_79
*732 FILLER_21_87
*733 FILLER_21_99
*734 FILLER_22_107
*735 FILLER_22_11
*736 FILLER_22_113
*737 FILLER_22_125
*738 FILLER_22_137
*739 FILLER_22_141
*740 FILLER_22_153
*741 FILLER_22_16
*742 FILLER_22_165
*743 FILLER_22_177
*744 FILLER_22_189
*745 FILLER_22_195
*746 FILLER_22_197
*747 FILLER_22_209
*748 FILLER_22_221
*749 FILLER_22_233
*750 FILLER_22_24
*751 FILLER_22_245
*752 FILLER_22_251
*753 FILLER_22_253
*754 FILLER_22_265
*755 FILLER_22_277
*756 FILLER_22_289
*757 FILLER_22_297
*758 FILLER_22_3
*759 FILLER_22_39
*760 FILLER_22_47
*761 FILLER_22_55
*762 FILLER_22_63
*763 FILLER_22_72
*764 FILLER_22_85
*765 FILLER_22_91
*766 FILLER_22_95
*767 FILLER_23_109
*768 FILLER_23_113
*769 FILLER_23_119
*770 FILLER_23_131
*771 FILLER_23_143
*772 FILLER_23_15
*773 FILLER_23_155
*774 FILLER_23_167
*775 FILLER_23_169
*776 FILLER_23_181
*777 FILLER_23_193
*778 FILLER_23_205
*779 FILLER_23_217
*780 FILLER_23_223
*781 FILLER_23_225
*782 FILLER_23_237
*783 FILLER_23_249
*784 FILLER_23_25
*785 FILLER_23_261
*786 FILLER_23_273
*787 FILLER_23_279
*788 FILLER_23_281
*789 FILLER_23_293
*790 FILLER_23_3
*791 FILLER_23_35
*792 FILLER_23_41
*793 FILLER_23_47
*794 FILLER_23_55
*795 FILLER_23_60
*796 FILLER_23_66
*797 FILLER_23_73
*798 FILLER_23_85
*799 FILLER_23_97
*800 FILLER_24_109
*801 FILLER_24_119
*802 FILLER_24_133
*803 FILLER_24_139
*804 FILLER_24_141
*805 FILLER_24_153
*806 FILLER_24_165
*807 FILLER_24_177
*808 FILLER_24_18
*809 FILLER_24_189
*810 FILLER_24_195
*811 FILLER_24_197
*812 FILLER_24_209
*813 FILLER_24_221
*814 FILLER_24_233
*815 FILLER_24_245
*816 FILLER_24_251
*817 FILLER_24_253
*818 FILLER_24_26
*819 FILLER_24_265
*820 FILLER_24_277
*821 FILLER_24_289
*822 FILLER_24_29
*823 FILLER_24_297
*824 FILLER_24_35
*825 FILLER_24_50
*826 FILLER_24_58
*827 FILLER_24_6
*828 FILLER_24_66
*829 FILLER_24_74
*830 FILLER_24_80
*831 FILLER_24_85
*832 FILLER_24_97
*833 FILLER_25_100
*834 FILLER_25_107
*835 FILLER_25_11
*836 FILLER_25_111
*837 FILLER_25_113
*838 FILLER_25_119
*839 FILLER_25_128
*840 FILLER_25_136
*841 FILLER_25_142
*842 FILLER_25_150
*843 FILLER_25_158
*844 FILLER_25_166
*845 FILLER_25_169
*846 FILLER_25_181
*847 FILLER_25_193
*848 FILLER_25_205
*849 FILLER_25_217
*850 FILLER_25_22
*851 FILLER_25_223
*852 FILLER_25_225
*853 FILLER_25_237
*854 FILLER_25_249
*855 FILLER_25_261
*856 FILLER_25_273
*857 FILLER_25_279
*858 FILLER_25_281
*859 FILLER_25_29
*860 FILLER_25_293
*861 FILLER_25_3
*862 FILLER_25_46
*863 FILLER_25_54
*864 FILLER_25_57
*865 FILLER_25_66
*866 FILLER_25_80
*867 FILLER_25_92
*868 FILLER_26_109
*869 FILLER_26_121
*870 FILLER_26_128
*871 FILLER_26_15
*872 FILLER_26_151
*873 FILLER_26_163
*874 FILLER_26_175
*875 FILLER_26_187
*876 FILLER_26_195
*877 FILLER_26_197
*878 FILLER_26_209
*879 FILLER_26_221
*880 FILLER_26_233
*881 FILLER_26_245
*882 FILLER_26_251
*883 FILLER_26_253
*884 FILLER_26_265
*885 FILLER_26_27
*886 FILLER_26_277
*887 FILLER_26_289
*888 FILLER_26_29
*889 FILLER_26_297
*890 FILLER_26_3
*891 FILLER_26_41
*892 FILLER_26_53
*893 FILLER_26_59
*894 FILLER_26_68
*895 FILLER_26_76
*896 FILLER_26_85
*897 FILLER_26_97
*898 FILLER_27_108
*899 FILLER_27_11
*900 FILLER_27_113
*901 FILLER_27_119
*902 FILLER_27_123
*903 FILLER_27_139
*904 FILLER_27_151
*905 FILLER_27_163
*906 FILLER_27_167
*907 FILLER_27_169
*908 FILLER_27_181
*909 FILLER_27_193
*910 FILLER_27_205
*911 FILLER_27_217
*912 FILLER_27_223
*913 FILLER_27_225
*914 FILLER_27_23
*915 FILLER_27_237
*916 FILLER_27_249
*917 FILLER_27_261
*918 FILLER_27_273
*919 FILLER_27_279
*920 FILLER_27_281
*921 FILLER_27_293
*922 FILLER_27_3
*923 FILLER_27_35
*924 FILLER_27_41
*925 FILLER_27_47
*926 FILLER_27_51
*927 FILLER_27_55
*928 FILLER_27_57
*929 FILLER_27_66
*930 FILLER_27_75
*931 FILLER_27_83
*932 FILLER_27_92
*933 FILLER_28_102
*934 FILLER_28_109
*935 FILLER_28_11
*936 FILLER_28_116
*937 FILLER_28_128
*938 FILLER_28_141
*939 FILLER_28_153
*940 FILLER_28_16
*941 FILLER_28_165
*942 FILLER_28_177
*943 FILLER_28_189
*944 FILLER_28_195
*945 FILLER_28_197
*946 FILLER_28_209
*947 FILLER_28_221
*948 FILLER_28_233
*949 FILLER_28_24
*950 FILLER_28_245
*951 FILLER_28_251
*952 FILLER_28_253
*953 FILLER_28_265
*954 FILLER_28_277
*955 FILLER_28_289
*956 FILLER_28_297
*957 FILLER_28_3
*958 FILLER_28_38
*959 FILLER_28_44
*960 FILLER_28_50
*961 FILLER_28_62
*962 FILLER_28_69
*963 FILLER_28_81
*964 FILLER_28_90
*965 FILLER_29_103
*966 FILLER_29_108
*967 FILLER_29_113
*968 FILLER_29_120
*969 FILLER_29_134
*970 FILLER_29_138
*971 FILLER_29_142
*972 FILLER_29_15
*973 FILLER_29_154
*974 FILLER_29_166
*975 FILLER_29_169
*976 FILLER_29_181
*977 FILLER_29_193
*978 FILLER_29_205
*979 FILLER_29_217
*980 FILLER_29_223
*981 FILLER_29_225
*982 FILLER_29_23
*983 FILLER_29_237
*984 FILLER_29_249
*985 FILLER_29_261
*986 FILLER_29_273
*987 FILLER_29_279
*988 FILLER_29_281
*989 FILLER_29_293
*990 FILLER_29_3
*991 FILLER_29_36
*992 FILLER_29_42
*993 FILLER_29_46
*994 FILLER_29_54
*995 FILLER_29_62
*996 FILLER_29_74
*997 FILLER_29_82
*998 FILLER_29_91
*999 FILLER_2_102
*1000 FILLER_2_110
*1001 FILLER_2_115
*1002 FILLER_2_127
*1003 FILLER_2_139
*1004 FILLER_2_141
*1005 FILLER_2_153
*1006 FILLER_2_165
*1007 FILLER_2_177
*1008 FILLER_2_189
*1009 FILLER_2_195
*1010 FILLER_2_197
*1011 FILLER_2_209
*1012 FILLER_2_221
*1013 FILLER_2_233
*1014 FILLER_2_24
*1015 FILLER_2_245
*1016 FILLER_2_251
*1017 FILLER_2_253
*1018 FILLER_2_265
*1019 FILLER_2_277
*1020 FILLER_2_289
*1021 FILLER_2_29
*1022 FILLER_2_297
*1023 FILLER_2_3
*1024 FILLER_2_49
*1025 FILLER_2_60
*1026 FILLER_2_68
*1027 FILLER_2_7
*1028 FILLER_2_80
*1029 FILLER_2_90
*1030 FILLER_30_107
*1031 FILLER_30_119
*1032 FILLER_30_131
*1033 FILLER_30_139
*1034 FILLER_30_141
*1035 FILLER_30_147
*1036 FILLER_30_15
*1037 FILLER_30_152
*1038 FILLER_30_164
*1039 FILLER_30_176
*1040 FILLER_30_188
*1041 FILLER_30_197
*1042 FILLER_30_209
*1043 FILLER_30_221
*1044 FILLER_30_233
*1045 FILLER_30_245
*1046 FILLER_30_251
*1047 FILLER_30_253
*1048 FILLER_30_265
*1049 FILLER_30_27
*1050 FILLER_30_277
*1051 FILLER_30_289
*1052 FILLER_30_297
*1053 FILLER_30_3
*1054 FILLER_30_34
*1055 FILLER_30_46
*1056 FILLER_30_58
*1057 FILLER_30_70
*1058 FILLER_30_80
*1059 FILLER_30_93
*1060 FILLER_31_103
*1061 FILLER_31_111
*1062 FILLER_31_113
*1063 FILLER_31_125
*1064 FILLER_31_13
*1065 FILLER_31_145
*1066 FILLER_31_157
*1067 FILLER_31_165
*1068 FILLER_31_169
*1069 FILLER_31_181
*1070 FILLER_31_193
*1071 FILLER_31_205
*1072 FILLER_31_21
*1073 FILLER_31_217
*1074 FILLER_31_223
*1075 FILLER_31_225
*1076 FILLER_31_237
*1077 FILLER_31_249
*1078 FILLER_31_261
*1079 FILLER_31_273
*1080 FILLER_31_279
*1081 FILLER_31_281
*1082 FILLER_31_293
*1083 FILLER_31_3
*1084 FILLER_31_30
*1085 FILLER_31_42
*1086 FILLER_31_54
*1087 FILLER_31_57
*1088 FILLER_31_61
*1089 FILLER_31_68
*1090 FILLER_31_80
*1091 FILLER_31_92
*1092 FILLER_32_10
*1093 FILLER_32_107
*1094 FILLER_32_117
*1095 FILLER_32_127
*1096 FILLER_32_136
*1097 FILLER_32_141
*1098 FILLER_32_153
*1099 FILLER_32_16
*1100 FILLER_32_165
*1101 FILLER_32_177
*1102 FILLER_32_189
*1103 FILLER_32_195
*1104 FILLER_32_197
*1105 FILLER_32_209
*1106 FILLER_32_221
*1107 FILLER_32_233
*1108 FILLER_32_24
*1109 FILLER_32_245
*1110 FILLER_32_251
*1111 FILLER_32_253
*1112 FILLER_32_265
*1113 FILLER_32_277
*1114 FILLER_32_289
*1115 FILLER_32_297
*1116 FILLER_32_3
*1117 FILLER_32_37
*1118 FILLER_32_48
*1119 FILLER_32_55
*1120 FILLER_32_63
*1121 FILLER_32_74
*1122 FILLER_32_82
*1123 FILLER_32_85
*1124 FILLER_32_97
*1125 FILLER_33_108
*1126 FILLER_33_113
*1127 FILLER_33_118
*1128 FILLER_33_130
*1129 FILLER_33_142
*1130 FILLER_33_15
*1131 FILLER_33_154
*1132 FILLER_33_166
*1133 FILLER_33_169
*1134 FILLER_33_181
*1135 FILLER_33_193
*1136 FILLER_33_205
*1137 FILLER_33_217
*1138 FILLER_33_223
*1139 FILLER_33_225
*1140 FILLER_33_237
*1141 FILLER_33_249
*1142 FILLER_33_261
*1143 FILLER_33_27
*1144 FILLER_33_273
*1145 FILLER_33_279
*1146 FILLER_33_281
*1147 FILLER_33_293
*1148 FILLER_33_3
*1149 FILLER_33_39
*1150 FILLER_33_45
*1151 FILLER_33_53
*1152 FILLER_33_57
*1153 FILLER_33_66
*1154 FILLER_33_70
*1155 FILLER_33_76
*1156 FILLER_33_92
*1157 FILLER_34_105
*1158 FILLER_34_117
*1159 FILLER_34_129
*1160 FILLER_34_137
*1161 FILLER_34_14
*1162 FILLER_34_141
*1163 FILLER_34_153
*1164 FILLER_34_165
*1165 FILLER_34_177
*1166 FILLER_34_189
*1167 FILLER_34_195
*1168 FILLER_34_197
*1169 FILLER_34_209
*1170 FILLER_34_221
*1171 FILLER_34_233
*1172 FILLER_34_245
*1173 FILLER_34_251
*1174 FILLER_34_253
*1175 FILLER_34_26
*1176 FILLER_34_265
*1177 FILLER_34_277
*1178 FILLER_34_289
*1179 FILLER_34_297
*1180 FILLER_34_3
*1181 FILLER_34_37
*1182 FILLER_34_58
*1183 FILLER_34_79
*1184 FILLER_34_83
*1185 FILLER_34_93
*1186 FILLER_35_102
*1187 FILLER_35_110
*1188 FILLER_35_113
*1189 FILLER_35_119
*1190 FILLER_35_131
*1191 FILLER_35_143
*1192 FILLER_35_15
*1193 FILLER_35_155
*1194 FILLER_35_167
*1195 FILLER_35_169
*1196 FILLER_35_181
*1197 FILLER_35_193
*1198 FILLER_35_205
*1199 FILLER_35_217
*1200 FILLER_35_223
*1201 FILLER_35_225
*1202 FILLER_35_237
*1203 FILLER_35_249
*1204 FILLER_35_261
*1205 FILLER_35_27
*1206 FILLER_35_273
*1207 FILLER_35_279
*1208 FILLER_35_281
*1209 FILLER_35_293
*1210 FILLER_35_3
*1211 FILLER_35_40
*1212 FILLER_35_52
*1213 FILLER_35_57
*1214 FILLER_35_73
*1215 FILLER_35_81
*1216 FILLER_35_88
*1217 FILLER_35_96
*1218 FILLER_36_105
*1219 FILLER_36_117
*1220 FILLER_36_129
*1221 FILLER_36_137
*1222 FILLER_36_141
*1223 FILLER_36_15
*1224 FILLER_36_153
*1225 FILLER_36_165
*1226 FILLER_36_177
*1227 FILLER_36_189
*1228 FILLER_36_195
*1229 FILLER_36_197
*1230 FILLER_36_209
*1231 FILLER_36_221
*1232 FILLER_36_233
*1233 FILLER_36_245
*1234 FILLER_36_251
*1235 FILLER_36_253
*1236 FILLER_36_265
*1237 FILLER_36_27
*1238 FILLER_36_277
*1239 FILLER_36_289
*1240 FILLER_36_29
*1241 FILLER_36_297
*1242 FILLER_36_3
*1243 FILLER_36_35
*1244 FILLER_36_44
*1245 FILLER_36_65
*1246 FILLER_36_77
*1247 FILLER_36_83
*1248 FILLER_36_93
*1249 FILLER_37_102
*1250 FILLER_37_110
*1251 FILLER_37_113
*1252 FILLER_37_125
*1253 FILLER_37_137
*1254 FILLER_37_149
*1255 FILLER_37_15
*1256 FILLER_37_161
*1257 FILLER_37_167
*1258 FILLER_37_169
*1259 FILLER_37_181
*1260 FILLER_37_193
*1261 FILLER_37_205
*1262 FILLER_37_217
*1263 FILLER_37_223
*1264 FILLER_37_225
*1265 FILLER_37_237
*1266 FILLER_37_249
*1267 FILLER_37_261
*1268 FILLER_37_27
*1269 FILLER_37_273
*1270 FILLER_37_279
*1271 FILLER_37_281
*1272 FILLER_37_293
*1273 FILLER_37_3
*1274 FILLER_37_39
*1275 FILLER_37_48
*1276 FILLER_37_57
*1277 FILLER_37_69
*1278 FILLER_37_79
*1279 FILLER_37_90
*1280 FILLER_38_106
*1281 FILLER_38_115
*1282 FILLER_38_127
*1283 FILLER_38_139
*1284 FILLER_38_141
*1285 FILLER_38_15
*1286 FILLER_38_153
*1287 FILLER_38_165
*1288 FILLER_38_177
*1289 FILLER_38_189
*1290 FILLER_38_195
*1291 FILLER_38_197
*1292 FILLER_38_209
*1293 FILLER_38_221
*1294 FILLER_38_233
*1295 FILLER_38_245
*1296 FILLER_38_251
*1297 FILLER_38_253
*1298 FILLER_38_265
*1299 FILLER_38_27
*1300 FILLER_38_277
*1301 FILLER_38_289
*1302 FILLER_38_29
*1303 FILLER_38_297
*1304 FILLER_38_3
*1305 FILLER_38_41
*1306 FILLER_38_49
*1307 FILLER_38_56
*1308 FILLER_38_62
*1309 FILLER_38_66
*1310 FILLER_38_78
*1311 FILLER_38_85
*1312 FILLER_38_96
*1313 FILLER_39_107
*1314 FILLER_39_111
*1315 FILLER_39_113
*1316 FILLER_39_125
*1317 FILLER_39_142
*1318 FILLER_39_15
*1319 FILLER_39_154
*1320 FILLER_39_166
*1321 FILLER_39_169
*1322 FILLER_39_181
*1323 FILLER_39_193
*1324 FILLER_39_205
*1325 FILLER_39_21
*1326 FILLER_39_217
*1327 FILLER_39_223
*1328 FILLER_39_225
*1329 FILLER_39_237
*1330 FILLER_39_249
*1331 FILLER_39_26
*1332 FILLER_39_261
*1333 FILLER_39_273
*1334 FILLER_39_279
*1335 FILLER_39_281
*1336 FILLER_39_293
*1337 FILLER_39_3
*1338 FILLER_39_47
*1339 FILLER_39_55
*1340 FILLER_39_57
*1341 FILLER_39_61
*1342 FILLER_39_70
*1343 FILLER_39_77
*1344 FILLER_39_81
*1345 FILLER_39_88
*1346 FILLER_39_95
*1347 FILLER_3_108
*1348 FILLER_3_113
*1349 FILLER_3_125
*1350 FILLER_3_137
*1351 FILLER_3_147
*1352 FILLER_3_159
*1353 FILLER_3_167
*1354 FILLER_3_169
*1355 FILLER_3_181
*1356 FILLER_3_193
*1357 FILLER_3_209
*1358 FILLER_3_221
*1359 FILLER_3_225
*1360 FILLER_3_237
*1361 FILLER_3_24
*1362 FILLER_3_249
*1363 FILLER_3_261
*1364 FILLER_3_273
*1365 FILLER_3_279
*1366 FILLER_3_28
*1367 FILLER_3_281
*1368 FILLER_3_293
*1369 FILLER_3_3
*1370 FILLER_3_45
*1371 FILLER_3_53
*1372 FILLER_3_61
*1373 FILLER_3_7
*1374 FILLER_3_70
*1375 FILLER_3_82
*1376 FILLER_3_90
*1377 FILLER_3_95
*1378 FILLER_40_109
*1379 FILLER_40_121
*1380 FILLER_40_133
*1381 FILLER_40_139
*1382 FILLER_40_141
*1383 FILLER_40_15
*1384 FILLER_40_153
*1385 FILLER_40_165
*1386 FILLER_40_177
*1387 FILLER_40_189
*1388 FILLER_40_195
*1389 FILLER_40_197
*1390 FILLER_40_209
*1391 FILLER_40_221
*1392 FILLER_40_233
*1393 FILLER_40_245
*1394 FILLER_40_251
*1395 FILLER_40_253
*1396 FILLER_40_265
*1397 FILLER_40_27
*1398 FILLER_40_277
*1399 FILLER_40_289
*1400 FILLER_40_29
*1401 FILLER_40_297
*1402 FILLER_40_3
*1403 FILLER_40_41
*1404 FILLER_40_53
*1405 FILLER_40_65
*1406 FILLER_40_77
*1407 FILLER_40_83
*1408 FILLER_40_85
*1409 FILLER_40_97
*1410 FILLER_41_101
*1411 FILLER_41_109
*1412 FILLER_41_113
*1413 FILLER_41_123
*1414 FILLER_41_135
*1415 FILLER_41_147
*1416 FILLER_41_15
*1417 FILLER_41_159
*1418 FILLER_41_167
*1419 FILLER_41_169
*1420 FILLER_41_181
*1421 FILLER_41_193
*1422 FILLER_41_205
*1423 FILLER_41_217
*1424 FILLER_41_223
*1425 FILLER_41_225
*1426 FILLER_41_237
*1427 FILLER_41_249
*1428 FILLER_41_261
*1429 FILLER_41_27
*1430 FILLER_41_273
*1431 FILLER_41_279
*1432 FILLER_41_281
*1433 FILLER_41_293
*1434 FILLER_41_3
*1435 FILLER_41_44
*1436 FILLER_41_57
*1437 FILLER_41_69
*1438 FILLER_41_80
*1439 FILLER_41_92
*1440 FILLER_42_100
*1441 FILLER_42_112
*1442 FILLER_42_124
*1443 FILLER_42_132
*1444 FILLER_42_136
*1445 FILLER_42_141
*1446 FILLER_42_15
*1447 FILLER_42_153
*1448 FILLER_42_165
*1449 FILLER_42_177
*1450 FILLER_42_189
*1451 FILLER_42_195
*1452 FILLER_42_197
*1453 FILLER_42_209
*1454 FILLER_42_221
*1455 FILLER_42_233
*1456 FILLER_42_245
*1457 FILLER_42_251
*1458 FILLER_42_253
*1459 FILLER_42_265
*1460 FILLER_42_27
*1461 FILLER_42_277
*1462 FILLER_42_289
*1463 FILLER_42_29
*1464 FILLER_42_297
*1465 FILLER_42_3
*1466 FILLER_42_41
*1467 FILLER_42_53
*1468 FILLER_42_65
*1469 FILLER_42_77
*1470 FILLER_42_83
*1471 FILLER_42_88
*1472 FILLER_43_105
*1473 FILLER_43_111
*1474 FILLER_43_113
*1475 FILLER_43_125
*1476 FILLER_43_137
*1477 FILLER_43_149
*1478 FILLER_43_15
*1479 FILLER_43_161
*1480 FILLER_43_167
*1481 FILLER_43_169
*1482 FILLER_43_181
*1483 FILLER_43_193
*1484 FILLER_43_205
*1485 FILLER_43_217
*1486 FILLER_43_223
*1487 FILLER_43_225
*1488 FILLER_43_237
*1489 FILLER_43_249
*1490 FILLER_43_261
*1491 FILLER_43_27
*1492 FILLER_43_273
*1493 FILLER_43_279
*1494 FILLER_43_281
*1495 FILLER_43_293
*1496 FILLER_43_3
*1497 FILLER_43_39
*1498 FILLER_43_51
*1499 FILLER_43_55
*1500 FILLER_43_57
*1501 FILLER_43_69
*1502 FILLER_43_81
*1503 FILLER_43_93
*1504 FILLER_44_109
*1505 FILLER_44_121
*1506 FILLER_44_133
*1507 FILLER_44_139
*1508 FILLER_44_141
*1509 FILLER_44_15
*1510 FILLER_44_153
*1511 FILLER_44_165
*1512 FILLER_44_177
*1513 FILLER_44_189
*1514 FILLER_44_195
*1515 FILLER_44_197
*1516 FILLER_44_209
*1517 FILLER_44_221
*1518 FILLER_44_233
*1519 FILLER_44_245
*1520 FILLER_44_251
*1521 FILLER_44_253
*1522 FILLER_44_265
*1523 FILLER_44_27
*1524 FILLER_44_277
*1525 FILLER_44_289
*1526 FILLER_44_29
*1527 FILLER_44_297
*1528 FILLER_44_3
*1529 FILLER_44_41
*1530 FILLER_44_53
*1531 FILLER_44_65
*1532 FILLER_44_77
*1533 FILLER_44_83
*1534 FILLER_44_85
*1535 FILLER_44_97
*1536 FILLER_45_105
*1537 FILLER_45_111
*1538 FILLER_45_113
*1539 FILLER_45_125
*1540 FILLER_45_137
*1541 FILLER_45_149
*1542 FILLER_45_15
*1543 FILLER_45_161
*1544 FILLER_45_167
*1545 FILLER_45_169
*1546 FILLER_45_181
*1547 FILLER_45_193
*1548 FILLER_45_205
*1549 FILLER_45_217
*1550 FILLER_45_223
*1551 FILLER_45_225
*1552 FILLER_45_237
*1553 FILLER_45_249
*1554 FILLER_45_261
*1555 FILLER_45_27
*1556 FILLER_45_273
*1557 FILLER_45_279
*1558 FILLER_45_281
*1559 FILLER_45_293
*1560 FILLER_45_3
*1561 FILLER_45_39
*1562 FILLER_45_51
*1563 FILLER_45_55
*1564 FILLER_45_57
*1565 FILLER_45_69
*1566 FILLER_45_81
*1567 FILLER_45_93
*1568 FILLER_46_109
*1569 FILLER_46_121
*1570 FILLER_46_133
*1571 FILLER_46_139
*1572 FILLER_46_141
*1573 FILLER_46_15
*1574 FILLER_46_153
*1575 FILLER_46_165
*1576 FILLER_46_177
*1577 FILLER_46_189
*1578 FILLER_46_195
*1579 FILLER_46_197
*1580 FILLER_46_209
*1581 FILLER_46_221
*1582 FILLER_46_233
*1583 FILLER_46_245
*1584 FILLER_46_251
*1585 FILLER_46_253
*1586 FILLER_46_265
*1587 FILLER_46_27
*1588 FILLER_46_277
*1589 FILLER_46_289
*1590 FILLER_46_29
*1591 FILLER_46_297
*1592 FILLER_46_3
*1593 FILLER_46_41
*1594 FILLER_46_53
*1595 FILLER_46_65
*1596 FILLER_46_77
*1597 FILLER_46_83
*1598 FILLER_46_85
*1599 FILLER_46_97
*1600 FILLER_47_105
*1601 FILLER_47_111
*1602 FILLER_47_113
*1603 FILLER_47_125
*1604 FILLER_47_137
*1605 FILLER_47_149
*1606 FILLER_47_15
*1607 FILLER_47_161
*1608 FILLER_47_167
*1609 FILLER_47_169
*1610 FILLER_47_181
*1611 FILLER_47_193
*1612 FILLER_47_205
*1613 FILLER_47_217
*1614 FILLER_47_223
*1615 FILLER_47_225
*1616 FILLER_47_237
*1617 FILLER_47_249
*1618 FILLER_47_261
*1619 FILLER_47_27
*1620 FILLER_47_273
*1621 FILLER_47_279
*1622 FILLER_47_281
*1623 FILLER_47_293
*1624 FILLER_47_3
*1625 FILLER_47_39
*1626 FILLER_47_51
*1627 FILLER_47_55
*1628 FILLER_47_57
*1629 FILLER_47_69
*1630 FILLER_47_81
*1631 FILLER_47_93
*1632 FILLER_48_109
*1633 FILLER_48_121
*1634 FILLER_48_133
*1635 FILLER_48_139
*1636 FILLER_48_141
*1637 FILLER_48_15
*1638 FILLER_48_153
*1639 FILLER_48_165
*1640 FILLER_48_177
*1641 FILLER_48_189
*1642 FILLER_48_195
*1643 FILLER_48_197
*1644 FILLER_48_209
*1645 FILLER_48_221
*1646 FILLER_48_233
*1647 FILLER_48_245
*1648 FILLER_48_251
*1649 FILLER_48_253
*1650 FILLER_48_265
*1651 FILLER_48_27
*1652 FILLER_48_277
*1653 FILLER_48_289
*1654 FILLER_48_29
*1655 FILLER_48_297
*1656 FILLER_48_3
*1657 FILLER_48_41
*1658 FILLER_48_53
*1659 FILLER_48_65