*SPEF "ieee 1481-1999"
*DESIGN "navray_top"
*DATE "11:11:11 Fri 11 11, 1111"
*VENDOR "OpenRCX"
*PROGRAM "Parallel Extraction"
*VERSION "1.0"
*DESIGN_FLOW "NAME_SCOPE LOCAL" "PIN_CAP NONE"
*DIVIDER /
*DELIMITER :
*BUS_DELIMITER []
*T_UNIT 1 NS
*C_UNIT 1 PF
*R_UNIT 1 OHM
*L_UNIT 1 HENRY

*NAME_MAP
*1 io_in[0]
*2 io_in[1]
*3 io_in[2]
*4 io_in[3]
*5 io_in[4]
*6 io_in[5]
*7 io_in[6]
*8 io_in[7]
*9 io_out[0]
*10 io_out[1]
*11 io_out[2]
*12 io_out[3]
*13 io_out[4]
*14 io_out[5]
*15 io_out[6]
*16 net8
*19 _000_
*20 _001_
*21 _002_
*22 _003_
*23 _004_
*24 _005_
*25 _006_
*26 _007_
*27 _008_
*28 _009_
*29 _010_
*30 _011_
*31 _012_
*32 _013_
*33 _014_
*34 _015_
*35 _016_
*36 _017_
*37 _018_
*38 _019_
*39 _020_
*40 _021_
*41 _022_
*42 _023_
*43 _024_
*44 _025_
*45 _026_
*46 _027_
*47 _028_
*48 _029_
*49 _030_
*50 _031_
*51 _032_
*52 _033_
*53 _034_
*54 _035_
*55 _036_
*56 _037_
*57 _038_
*58 _039_
*59 _040_
*60 _041_
*61 _042_
*62 _043_
*63 _044_
*64 _045_
*65 _046_
*66 _047_
*67 _048_
*68 _049_
*69 _050_
*70 _051_
*71 _052_
*72 _053_
*73 _054_
*74 _055_
*75 _056_
*76 _057_
*77 _058_
*78 _059_
*79 _060_
*80 _061_
*81 _062_
*82 _063_
*83 _064_
*84 _065_
*85 _066_
*86 _067_
*87 _068_
*88 clknet_0_io_in[0]
*89 clknet_2_0__leaf_io_in[0]
*90 clknet_2_1__leaf_io_in[0]
*91 clknet_2_2__leaf_io_in[0]
*92 clknet_2_3__leaf_io_in[0]
*93 net1
*94 net10
*95 net11
*96 net12
*97 net13
*98 net14
*99 net2
*100 net3
*101 net4
*102 net5
*103 net6
*104 net7
*105 net9
*106 sqrt_inst\.d\[1\]\[2\]
*107 sqrt_inst\.d\[1\]\[3\]
*108 sqrt_inst\.d\[1\]\[4\]
*109 sqrt_inst\.d\[1\]\[5\]
*110 sqrt_inst\.d\[1\]\[6\]
*111 sqrt_inst\.d\[1\]\[7\]
*112 sqrt_inst\.d\[2\]\[4\]
*113 sqrt_inst\.d\[2\]\[5\]
*114 sqrt_inst\.d\[2\]\[6\]
*115 sqrt_inst\.d\[2\]\[7\]
*116 sqrt_inst\.d\[3\]\[6\]
*117 sqrt_inst\.d\[3\]\[7\]
*118 sqrt_inst\.q\[1\]\[0\]
*119 sqrt_inst\.q\[2\]\[0\]
*120 sqrt_inst\.q\[2\]\[1\]
*121 sqrt_inst\.q\[3\]\[0\]
*122 sqrt_inst\.q\[3\]\[1\]
*123 sqrt_inst\.q\[3\]\[2\]
*124 sqrt_inst\.q\[4\]\[0\]
*125 sqrt_inst\.q\[4\]\[1\]
*126 sqrt_inst\.q\[4\]\[2\]
*127 sqrt_inst\.q\[4\]\[3\]
*128 sqrt_inst\.r\[1\]\[0\]
*129 sqrt_inst\.r\[2\]\[0\]
*130 sqrt_inst\.r\[2\]\[1\]
*131 sqrt_inst\.r\[2\]\[2\]
*132 sqrt_inst\.r\[2\]\[3\]
*133 sqrt_inst\.r\[3\]\[0\]
*134 sqrt_inst\.r\[3\]\[1\]
*135 sqrt_inst\.r\[3\]\[2\]
*136 sqrt_inst\.r\[3\]\[3\]
*137 sqrt_inst\.r\[3\]\[5\]
*138 ANTENNA_0
*139 FILLER_0_101
*140 FILLER_0_109
*141 FILLER_0_129
*142 FILLER_0_137
*143 FILLER_0_141
*144 FILLER_0_153
*145 FILLER_0_165
*146 FILLER_0_169
*147 FILLER_0_181
*148 FILLER_0_193
*149 FILLER_0_197
*150 FILLER_0_209
*151 FILLER_0_221
*152 FILLER_0_225
*153 FILLER_0_237
*154 FILLER_0_24
*155 FILLER_0_249
*156 FILLER_0_253
*157 FILLER_0_265
*158 FILLER_0_277
*159 FILLER_0_281
*160 FILLER_0_29
*161 FILLER_0_293
*162 FILLER_0_3
*163 FILLER_0_35
*164 FILLER_0_52
*165 FILLER_0_7
*166 FILLER_0_73
*167 FILLER_0_81
*168 FILLER_10_101
*169 FILLER_10_113
*170 FILLER_10_125
*171 FILLER_10_137
*172 FILLER_10_141
*173 FILLER_10_153
*174 FILLER_10_165
*175 FILLER_10_177
*176 FILLER_10_189
*177 FILLER_10_195
*178 FILLER_10_197
*179 FILLER_10_209
*180 FILLER_10_221
*181 FILLER_10_233
*182 FILLER_10_24
*183 FILLER_10_245
*184 FILLER_10_251
*185 FILLER_10_253
*186 FILLER_10_265
*187 FILLER_10_277
*188 FILLER_10_289
*189 FILLER_10_29
*190 FILLER_10_297
*191 FILLER_10_3
*192 FILLER_10_41
*193 FILLER_10_47
*194 FILLER_10_65
*195 FILLER_10_77
*196 FILLER_10_83
*197 FILLER_11_108
*198 FILLER_11_113
*199 FILLER_11_12
*200 FILLER_11_125
*201 FILLER_11_137
*202 FILLER_11_149
*203 FILLER_11_161
*204 FILLER_11_167
*205 FILLER_11_169
*206 FILLER_11_177
*207 FILLER_11_189
*208 FILLER_11_201
*209 FILLER_11_213
*210 FILLER_11_221
*211 FILLER_11_225
*212 FILLER_11_237
*213 FILLER_11_249
*214 FILLER_11_261
*215 FILLER_11_273
*216 FILLER_11_279
*217 FILLER_11_281
*218 FILLER_11_293
*219 FILLER_11_30
*220 FILLER_11_34
*221 FILLER_11_52
*222 FILLER_11_6
*223 FILLER_11_74
*224 FILLER_11_86
*225 FILLER_11_90
*226 FILLER_11_96
*227 FILLER_12_110
*228 FILLER_12_122
*229 FILLER_12_134
*230 FILLER_12_141
*231 FILLER_12_153
*232 FILLER_12_165
*233 FILLER_12_177
*234 FILLER_12_189
*235 FILLER_12_195
*236 FILLER_12_197
*237 FILLER_12_209
*238 FILLER_12_221
*239 FILLER_12_233
*240 FILLER_12_24
*241 FILLER_12_245
*242 FILLER_12_251
*243 FILLER_12_253
*244 FILLER_12_265
*245 FILLER_12_277
*246 FILLER_12_289
*247 FILLER_12_29
*248 FILLER_12_297
*249 FILLER_12_3
*250 FILLER_12_41
*251 FILLER_12_47
*252 FILLER_12_65
*253 FILLER_12_7
*254 FILLER_12_77
*255 FILLER_12_83
*256 FILLER_12_85
*257 FILLER_12_93
*258 FILLER_12_98
*259 FILLER_13_106
*260 FILLER_13_11
*261 FILLER_13_113
*262 FILLER_13_125
*263 FILLER_13_137
*264 FILLER_13_149
*265 FILLER_13_161
*266 FILLER_13_167
*267 FILLER_13_169
*268 FILLER_13_181
*269 FILLER_13_193
*270 FILLER_13_205
*271 FILLER_13_217
*272 FILLER_13_223
*273 FILLER_13_225
*274 FILLER_13_237
*275 FILLER_13_249
*276 FILLER_13_261
*277 FILLER_13_273
*278 FILLER_13_279
*279 FILLER_13_281
*280 FILLER_13_293
*281 FILLER_13_3
*282 FILLER_13_30
*283 FILLER_13_42
*284 FILLER_13_54
*285 FILLER_13_73
*286 FILLER_13_77
*287 FILLER_13_94
*288 FILLER_14_109
*289 FILLER_14_121
*290 FILLER_14_133
*291 FILLER_14_139
*292 FILLER_14_141
*293 FILLER_14_153
*294 FILLER_14_165
*295 FILLER_14_177
*296 FILLER_14_189
*297 FILLER_14_195
*298 FILLER_14_197
*299 FILLER_14_209
*300 FILLER_14_221
*301 FILLER_14_233
*302 FILLER_14_24
*303 FILLER_14_245
*304 FILLER_14_251
*305 FILLER_14_253
*306 FILLER_14_265
*307 FILLER_14_277
*308 FILLER_14_289
*309 FILLER_14_29
*310 FILLER_14_297
*311 FILLER_14_3
*312 FILLER_14_41
*313 FILLER_14_53
*314 FILLER_14_65
*315 FILLER_14_7
*316 FILLER_14_77
*317 FILLER_14_83
*318 FILLER_14_85
*319 FILLER_14_97
*320 FILLER_15_105
*321 FILLER_15_11
*322 FILLER_15_111
*323 FILLER_15_113
*324 FILLER_15_124
*325 FILLER_15_137
*326 FILLER_15_149
*327 FILLER_15_161
*328 FILLER_15_167
*329 FILLER_15_169
*330 FILLER_15_181
*331 FILLER_15_193
*332 FILLER_15_205
*333 FILLER_15_217
*334 FILLER_15_223
*335 FILLER_15_225
*336 FILLER_15_237
*337 FILLER_15_249
*338 FILLER_15_261
*339 FILLER_15_273
*340 FILLER_15_279
*341 FILLER_15_281
*342 FILLER_15_29
*343 FILLER_15_293
*344 FILLER_15_3
*345 FILLER_15_41
*346 FILLER_15_53
*347 FILLER_15_57
*348 FILLER_15_69
*349 FILLER_15_81
*350 FILLER_15_93
*351 FILLER_16_100
*352 FILLER_16_112
*353 FILLER_16_124
*354 FILLER_16_136
*355 FILLER_16_141
*356 FILLER_16_153
*357 FILLER_16_165
*358 FILLER_16_177
*359 FILLER_16_18
*360 FILLER_16_189
*361 FILLER_16_195
*362 FILLER_16_197
*363 FILLER_16_209
*364 FILLER_16_221
*365 FILLER_16_233
*366 FILLER_16_245
*367 FILLER_16_251
*368 FILLER_16_253
*369 FILLER_16_26
*370 FILLER_16_265
*371 FILLER_16_277
*372 FILLER_16_289
*373 FILLER_16_29
*374 FILLER_16_297
*375 FILLER_16_41
*376 FILLER_16_53
*377 FILLER_16_6
*378 FILLER_16_65
*379 FILLER_16_77
*380 FILLER_16_83
*381 FILLER_16_85
*382 FILLER_17_111
*383 FILLER_17_113
*384 FILLER_17_125
*385 FILLER_17_137
*386 FILLER_17_149
*387 FILLER_17_15
*388 FILLER_17_161
*389 FILLER_17_167
*390 FILLER_17_169
*391 FILLER_17_181
*392 FILLER_17_193
*393 FILLER_17_205
*394 FILLER_17_217
*395 FILLER_17_223
*396 FILLER_17_225
*397 FILLER_17_237
*398 FILLER_17_249
*399 FILLER_17_261
*400 FILLER_17_27
*401 FILLER_17_273
*402 FILLER_17_279
*403 FILLER_17_281
*404 FILLER_17_293
*405 FILLER_17_3
*406 FILLER_17_39
*407 FILLER_17_45
*408 FILLER_17_52
*409 FILLER_17_63
*410 FILLER_17_75
*411 FILLER_17_87
*412 FILLER_17_99
*413 FILLER_18_109
*414 FILLER_18_121
*415 FILLER_18_133
*416 FILLER_18_139
*417 FILLER_18_141
*418 FILLER_18_15
*419 FILLER_18_153
*420 FILLER_18_165
*421 FILLER_18_177
*422 FILLER_18_189
*423 FILLER_18_195
*424 FILLER_18_197
*425 FILLER_18_209
*426 FILLER_18_221
*427 FILLER_18_233
*428 FILLER_18_245
*429 FILLER_18_251
*430 FILLER_18_253
*431 FILLER_18_265
*432 FILLER_18_27
*433 FILLER_18_277
*434 FILLER_18_289
*435 FILLER_18_29
*436 FILLER_18_297
*437 FILLER_18_3
*438 FILLER_18_49
*439 FILLER_18_57
*440 FILLER_18_68
*441 FILLER_18_75
*442 FILLER_18_83
*443 FILLER_18_85
*444 FILLER_18_97
*445 FILLER_19_108
*446 FILLER_19_113
*447 FILLER_19_125
*448 FILLER_19_137
*449 FILLER_19_149
*450 FILLER_19_15
*451 FILLER_19_161
*452 FILLER_19_167
*453 FILLER_19_169
*454 FILLER_19_181
*455 FILLER_19_193
*456 FILLER_19_205
*457 FILLER_19_217
*458 FILLER_19_223
*459 FILLER_19_225
*460 FILLER_19_237
*461 FILLER_19_249
*462 FILLER_19_261
*463 FILLER_19_27
*464 FILLER_19_273
*465 FILLER_19_279
*466 FILLER_19_281
*467 FILLER_19_293
*468 FILLER_19_3
*469 FILLER_19_33
*470 FILLER_19_39
*471 FILLER_19_51
*472 FILLER_19_55
*473 FILLER_19_65
*474 FILLER_19_80
*475 FILLER_19_99
*476 FILLER_1_109
*477 FILLER_1_113
*478 FILLER_1_125
*479 FILLER_1_133
*480 FILLER_1_142
*481 FILLER_1_154
*482 FILLER_1_166
*483 FILLER_1_169
*484 FILLER_1_181
*485 FILLER_1_193
*486 FILLER_1_205
*487 FILLER_1_217
*488 FILLER_1_223
*489 FILLER_1_225
*490 FILLER_1_237
*491 FILLER_1_24
*492 FILLER_1_249
*493 FILLER_1_261
*494 FILLER_1_273
*495 FILLER_1_279
*496 FILLER_1_281
*497 FILLER_1_293
*498 FILLER_1_3
*499 FILLER_1_52
*500 FILLER_1_57
*501 FILLER_1_69
*502 FILLER_1_89
*503 FILLER_1_97
*504 FILLER_20_109
*505 FILLER_20_121
*506 FILLER_20_133
*507 FILLER_20_139
*508 FILLER_20_141
*509 FILLER_20_153
*510 FILLER_20_165
*511 FILLER_20_177
*512 FILLER_20_18
*513 FILLER_20_189
*514 FILLER_20_195
*515 FILLER_20_197
*516 FILLER_20_209
*517 FILLER_20_221
*518 FILLER_20_233
*519 FILLER_20_245
*520 FILLER_20_251
*521 FILLER_20_253
*522 FILLER_20_26
*523 FILLER_20_265
*524 FILLER_20_277
*525 FILLER_20_289
*526 FILLER_20_29
*527 FILLER_20_297
*528 FILLER_20_41
*529 FILLER_20_49
*530 FILLER_20_54
*531 FILLER_20_6
*532 FILLER_20_60
*533 FILLER_20_67
*534 FILLER_20_74
*535 FILLER_20_82
*536 FILLER_20_85
*537 FILLER_20_97
*538 FILLER_21_108
*539 FILLER_21_113
*540 FILLER_21_121
*541 FILLER_21_125
*542 FILLER_21_137
*543 FILLER_21_149
*544 FILLER_21_15
*545 FILLER_21_161
*546 FILLER_21_167
*547 FILLER_21_169
*548 FILLER_21_181
*549 FILLER_21_193
*550 FILLER_21_205
*551 FILLER_21_217
*552 FILLER_21_223
*553 FILLER_21_225
*554 FILLER_21_237
*555 FILLER_21_249
*556 FILLER_21_261
*557 FILLER_21_27
*558 FILLER_21_273
*559 FILLER_21_279
*560 FILLER_21_281
*561 FILLER_21_293
*562 FILLER_21_3
*563 FILLER_21_39
*564 FILLER_21_44
*565 FILLER_21_57
*566 FILLER_21_69
*567 FILLER_21_73
*568 FILLER_21_84
*569 FILLER_21_96
*570 FILLER_22_109
*571 FILLER_22_121
*572 FILLER_22_133
*573 FILLER_22_139
*574 FILLER_22_141
*575 FILLER_22_15
*576 FILLER_22_153
*577 FILLER_22_165
*578 FILLER_22_177
*579 FILLER_22_189
*580 FILLER_22_195
*581 FILLER_22_197
*582 FILLER_22_209
*583 FILLER_22_221
*584 FILLER_22_233
*585 FILLER_22_245
*586 FILLER_22_251
*587 FILLER_22_253
*588 FILLER_22_265
*589 FILLER_22_27
*590 FILLER_22_277
*591 FILLER_22_289
*592 FILLER_22_29
*593 FILLER_22_297
*594 FILLER_22_3
*595 FILLER_22_37
*596 FILLER_22_42
*597 FILLER_22_54
*598 FILLER_22_66
*599 FILLER_22_78
*600 FILLER_22_85
*601 FILLER_22_97
*602 FILLER_23_108
*603 FILLER_23_113
*604 FILLER_23_125
*605 FILLER_23_137
*606 FILLER_23_149
*607 FILLER_23_15
*608 FILLER_23_161
*609 FILLER_23_167
*610 FILLER_23_169
*611 FILLER_23_181
*612 FILLER_23_193
*613 FILLER_23_205
*614 FILLER_23_217
*615 FILLER_23_223
*616 FILLER_23_225
*617 FILLER_23_237
*618 FILLER_23_249
*619 FILLER_23_261
*620 FILLER_23_273
*621 FILLER_23_279
*622 FILLER_23_281
*623 FILLER_23_293
*624 FILLER_23_3
*625 FILLER_23_34
*626 FILLER_23_41
*627 FILLER_23_53
*628 FILLER_23_57
*629 FILLER_23_72
*630 FILLER_23_84
*631 FILLER_23_96
*632 FILLER_24_102
*633 FILLER_24_114
*634 FILLER_24_126
*635 FILLER_24_138
*636 FILLER_24_141
*637 FILLER_24_153
*638 FILLER_24_165
*639 FILLER_24_177
*640 FILLER_24_18
*641 FILLER_24_189
*642 FILLER_24_195
*643 FILLER_24_197
*644 FILLER_24_209
*645 FILLER_24_221
*646 FILLER_24_233
*647 FILLER_24_245
*648 FILLER_24_251
*649 FILLER_24_253
*650 FILLER_24_26
*651 FILLER_24_265
*652 FILLER_24_277
*653 FILLER_24_289
*654 FILLER_24_29
*655 FILLER_24_297
*656 FILLER_24_48
*657 FILLER_24_6
*658 FILLER_24_60
*659 FILLER_24_66
*660 FILLER_24_72
*661 FILLER_24_85
*662 FILLER_24_91
*663 FILLER_25_106
*664 FILLER_25_118
*665 FILLER_25_130
*666 FILLER_25_142
*667 FILLER_25_15
*668 FILLER_25_154
*669 FILLER_25_166
*670 FILLER_25_169
*671 FILLER_25_181
*672 FILLER_25_193
*673 FILLER_25_205
*674 FILLER_25_217
*675 FILLER_25_223
*676 FILLER_25_225
*677 FILLER_25_237
*678 FILLER_25_249
*679 FILLER_25_261
*680 FILLER_25_27
*681 FILLER_25_273
*682 FILLER_25_279
*683 FILLER_25_281
*684 FILLER_25_293
*685 FILLER_25_3
*686 FILLER_25_35
*687 FILLER_25_41
*688 FILLER_25_53
*689 FILLER_25_60
*690 FILLER_25_64
*691 FILLER_25_73
*692 FILLER_25_85
*693 FILLER_25_89
*694 FILLER_25_94
*695 FILLER_26_100
*696 FILLER_26_112
*697 FILLER_26_123
*698 FILLER_26_135
*699 FILLER_26_139
*700 FILLER_26_141
*701 FILLER_26_15
*702 FILLER_26_153
*703 FILLER_26_165
*704 FILLER_26_177
*705 FILLER_26_189
*706 FILLER_26_195
*707 FILLER_26_197
*708 FILLER_26_209
*709 FILLER_26_221
*710 FILLER_26_233
*711 FILLER_26_245
*712 FILLER_26_251
*713 FILLER_26_253
*714 FILLER_26_265
*715 FILLER_26_27
*716 FILLER_26_277
*717 FILLER_26_289
*718 FILLER_26_29
*719 FILLER_26_297
*720 FILLER_26_3
*721 FILLER_26_41
*722 FILLER_26_53
*723 FILLER_26_65
*724 FILLER_26_80
*725 FILLER_26_92
*726 FILLER_27_101
*727 FILLER_27_109
*728 FILLER_27_113
*729 FILLER_27_125
*730 FILLER_27_13
*731 FILLER_27_137
*732 FILLER_27_149
*733 FILLER_27_161
*734 FILLER_27_167
*735 FILLER_27_169
*736 FILLER_27_181
*737 FILLER_27_193
*738 FILLER_27_205
*739 FILLER_27_217
*740 FILLER_27_223
*741 FILLER_27_225
*742 FILLER_27_237
*743 FILLER_27_249
*744 FILLER_27_25
*745 FILLER_27_261
*746 FILLER_27_273
*747 FILLER_27_279
*748 FILLER_27_281
*749 FILLER_27_293
*750 FILLER_27_37
*751 FILLER_27_49
*752 FILLER_27_55
*753 FILLER_27_57
*754 FILLER_27_69
*755 FILLER_27_81
*756 FILLER_27_89
*757 FILLER_28_109
*758 FILLER_28_121
*759 FILLER_28_133
*760 FILLER_28_139
*761 FILLER_28_141
*762 FILLER_28_15
*763 FILLER_28_153
*764 FILLER_28_165
*765 FILLER_28_177
*766 FILLER_28_189
*767 FILLER_28_195
*768 FILLER_28_197
*769 FILLER_28_209
*770 FILLER_28_221
*771 FILLER_28_233
*772 FILLER_28_245
*773 FILLER_28_251
*774 FILLER_28_253
*775 FILLER_28_265
*776 FILLER_28_27
*777 FILLER_28_277
*778 FILLER_28_289
*779 FILLER_28_29
*780 FILLER_28_297
*781 FILLER_28_3
*782 FILLER_28_41
*783 FILLER_28_53
*784 FILLER_28_65
*785 FILLER_28_77
*786 FILLER_28_83
*787 FILLER_28_85
*788 FILLER_28_97
*789 FILLER_29_103
*790 FILLER_29_111
*791 FILLER_29_113
*792 FILLER_29_125
*793 FILLER_29_137
*794 FILLER_29_149
*795 FILLER_29_15
*796 FILLER_29_161
*797 FILLER_29_167
*798 FILLER_29_169
*799 FILLER_29_181
*800 FILLER_29_193
*801 FILLER_29_205
*802 FILLER_29_217
*803 FILLER_29_223
*804 FILLER_29_225
*805 FILLER_29_237
*806 FILLER_29_249
*807 FILLER_29_261
*808 FILLER_29_27
*809 FILLER_29_273
*810 FILLER_29_279
*811 FILLER_29_281
*812 FILLER_29_293
*813 FILLER_29_3
*814 FILLER_29_39
*815 FILLER_29_51
*816 FILLER_29_55
*817 FILLER_29_57
*818 FILLER_29_69
*819 FILLER_29_81
*820 FILLER_29_91
*821 FILLER_2_101
*822 FILLER_2_113
*823 FILLER_2_133
*824 FILLER_2_139
*825 FILLER_2_141
*826 FILLER_2_152
*827 FILLER_2_164
*828 FILLER_2_176
*829 FILLER_2_188
*830 FILLER_2_197
*831 FILLER_2_209
*832 FILLER_2_221
*833 FILLER_2_233
*834 FILLER_2_24
*835 FILLER_2_245
*836 FILLER_2_251
*837 FILLER_2_253
*838 FILLER_2_265
*839 FILLER_2_277
*840 FILLER_2_289
*841 FILLER_2_29
*842 FILLER_2_297
*843 FILLER_2_3
*844 FILLER_2_41
*845 FILLER_2_65
*846 FILLER_2_71
*847 FILLER_2_80
*848 FILLER_30_109
*849 FILLER_30_121
*850 FILLER_30_133
*851 FILLER_30_139
*852 FILLER_30_141
*853 FILLER_30_15
*854 FILLER_30_153
*855 FILLER_30_165
*856 FILLER_30_177
*857 FILLER_30_189
*858 FILLER_30_195
*859 FILLER_30_197
*860 FILLER_30_209
*861 FILLER_30_221
*862 FILLER_30_233
*863 FILLER_30_245
*864 FILLER_30_251
*865 FILLER_30_253
*866 FILLER_30_265
*867 FILLER_30_27
*868 FILLER_30_277
*869 FILLER_30_289
*870 FILLER_30_29
*871 FILLER_30_297
*872 FILLER_30_3
*873 FILLER_30_41
*874 FILLER_30_53
*875 FILLER_30_65
*876 FILLER_30_77
*877 FILLER_30_83
*878 FILLER_30_85
*879 FILLER_30_97
*880 FILLER_31_103
*881 FILLER_31_111
*882 FILLER_31_113
*883 FILLER_31_125
*884 FILLER_31_137
*885 FILLER_31_149
*886 FILLER_31_15
*887 FILLER_31_161
*888 FILLER_31_167
*889 FILLER_31_169
*890 FILLER_31_181
*891 FILLER_31_193
*892 FILLER_31_205
*893 FILLER_31_217
*894 FILLER_31_223
*895 FILLER_31_225
*896 FILLER_31_237
*897 FILLER_31_249
*898 FILLER_31_261
*899 FILLER_31_27
*900 FILLER_31_273
*901 FILLER_31_279
*902 FILLER_31_281
*903 FILLER_31_293
*904 FILLER_31_3
*905 FILLER_31_39
*906 FILLER_31_51
*907 FILLER_31_55
*908 FILLER_31_60
*909 FILLER_31_72
*910 FILLER_31_84
*911 FILLER_31_91
*912 FILLER_32_109
*913 FILLER_32_121
*914 FILLER_32_133
*915 FILLER_32_139
*916 FILLER_32_141
*917 FILLER_32_15
*918 FILLER_32_153
*919 FILLER_32_165
*920 FILLER_32_177
*921 FILLER_32_189
*922 FILLER_32_195
*923 FILLER_32_197
*924 FILLER_32_209
*925 FILLER_32_221
*926 FILLER_32_233
*927 FILLER_32_245
*928 FILLER_32_251
*929 FILLER_32_253
*930 FILLER_32_265
*931 FILLER_32_27
*932 FILLER_32_277
*933 FILLER_32_289
*934 FILLER_32_29
*935 FILLER_32_297
*936 FILLER_32_3
*937 FILLER_32_41
*938 FILLER_32_53
*939 FILLER_32_65
*940 FILLER_32_77
*941 FILLER_32_83
*942 FILLER_32_85
*943 FILLER_32_97
*944 FILLER_33_105
*945 FILLER_33_111
*946 FILLER_33_113
*947 FILLER_33_125
*948 FILLER_33_137
*949 FILLER_33_149
*950 FILLER_33_15
*951 FILLER_33_161
*952 FILLER_33_167
*953 FILLER_33_169
*954 FILLER_33_181
*955 FILLER_33_193
*956 FILLER_33_205
*957 FILLER_33_217
*958 FILLER_33_223
*959 FILLER_33_225
*960 FILLER_33_237
*961 FILLER_33_249
*962 FILLER_33_261
*963 FILLER_33_27
*964 FILLER_33_273
*965 FILLER_33_279
*966 FILLER_33_281
*967 FILLER_33_293
*968 FILLER_33_3
*969 FILLER_33_39
*970 FILLER_33_51
*971 FILLER_33_55
*972 FILLER_33_57
*973 FILLER_33_69
*974 FILLER_33_81
*975 FILLER_33_93
*976 FILLER_34_102
*977 FILLER_34_114
*978 FILLER_34_126
*979 FILLER_34_138
*980 FILLER_34_141
*981 FILLER_34_15
*982 FILLER_34_153
*983 FILLER_34_165
*984 FILLER_34_177
*985 FILLER_34_189
*986 FILLER_34_195
*987 FILLER_34_197
*988 FILLER_34_209
*989 FILLER_34_221
*990 FILLER_34_233
*991 FILLER_34_245
*992 FILLER_34_251
*993 FILLER_34_253
*994 FILLER_34_265
*995 FILLER_34_27
*996 FILLER_34_277
*997 FILLER_34_289
*998 FILLER_34_29
*999 FILLER_34_297
*1000 FILLER_34_3
*1001 FILLER_34_41
*1002 FILLER_34_53
*1003 FILLER_34_65
*1004 FILLER_34_77
*1005 FILLER_34_83
*1006 FILLER_34_85
*1007 FILLER_34_93
*1008 FILLER_35_105
*1009 FILLER_35_111
*1010 FILLER_35_113
*1011 FILLER_35_125
*1012 FILLER_35_137
*1013 FILLER_35_149
*1014 FILLER_35_15
*1015 FILLER_35_161
*1016 FILLER_35_167
*1017 FILLER_35_169
*1018 FILLER_35_181
*1019 FILLER_35_193
*1020 FILLER_35_205
*1021 FILLER_35_217
*1022 FILLER_35_223
*1023 FILLER_35_225
*1024 FILLER_35_237
*1025 FILLER_35_249
*1026 FILLER_35_261
*1027 FILLER_35_27
*1028 FILLER_35_273
*1029 FILLER_35_279
*1030 FILLER_35_281
*1031 FILLER_35_293
*1032 FILLER_35_3
*1033 FILLER_35_39
*1034 FILLER_35_51
*1035 FILLER_35_55
*1036 FILLER_35_57
*1037 FILLER_35_69
*1038 FILLER_35_81
*1039 FILLER_35_93
*1040 FILLER_36_109
*1041 FILLER_36_121
*1042 FILLER_36_133
*1043 FILLER_36_139
*1044 FILLER_36_141
*1045 FILLER_36_15
*1046 FILLER_36_153
*1047 FILLER_36_165
*1048 FILLER_36_177
*1049 FILLER_36_189
*1050 FILLER_36_195
*1051 FILLER_36_197
*1052 FILLER_36_209
*1053 FILLER_36_221
*1054 FILLER_36_233
*1055 FILLER_36_245
*1056 FILLER_36_251
*1057 FILLER_36_253
*1058 FILLER_36_265
*1059 FILLER_36_27
*1060 FILLER_36_277
*1061 FILLER_36_289
*1062 FILLER_36_29
*1063 FILLER_36_297
*1064 FILLER_36_3
*1065 FILLER_36_41
*1066 FILLER_36_53
*1067 FILLER_36_65
*1068 FILLER_36_77
*1069 FILLER_36_83
*1070 FILLER_36_85
*1071 FILLER_36_97
*1072 FILLER_37_105
*1073 FILLER_37_111
*1074 FILLER_37_113
*1075 FILLER_37_125
*1076 FILLER_37_137
*1077 FILLER_37_149
*1078 FILLER_37_15
*1079 FILLER_37_161
*1080 FILLER_37_167
*1081 FILLER_37_169
*1082 FILLER_37_181
*1083 FILLER_37_193
*1084 FILLER_37_205
*1085 FILLER_37_217
*1086 FILLER_37_223
*1087 FILLER_37_225
*1088 FILLER_37_237
*1089 FILLER_37_249
*1090 FILLER_37_261
*1091 FILLER_37_27
*1092 FILLER_37_273
*1093 FILLER_37_279
*1094 FILLER_37_281
*1095 FILLER_37_293
*1096 FILLER_37_3
*1097 FILLER_37_39
*1098 FILLER_37_51
*1099 FILLER_37_55
*1100 FILLER_37_57
*1101 FILLER_37_69
*1102 FILLER_37_81
*1103 FILLER_37_93
*1104 FILLER_38_109
*1105 FILLER_38_121
*1106 FILLER_38_133
*1107 FILLER_38_139
*1108 FILLER_38_141
*1109 FILLER_38_15
*1110 FILLER_38_153
*1111 FILLER_38_165
*1112 FILLER_38_177
*1113 FILLER_38_189
*1114 FILLER_38_195
*1115 FILLER_38_197
*1116 FILLER_38_209
*1117 FILLER_38_221
*1118 FILLER_38_233
*1119 FILLER_38_245
*1120 FILLER_38_251
*1121 FILLER_38_253
*1122 FILLER_38_265
*1123 FILLER_38_27
*1124 FILLER_38_277
*1125 FILLER_38_289
*1126 FILLER_38_29
*1127 FILLER_38_297
*1128 FILLER_38_3
*1129 FILLER_38_41
*1130 FILLER_38_53
*1131 FILLER_38_65
*1132 FILLER_38_77
*1133 FILLER_38_83
*1134 FILLER_38_85
*1135 FILLER_38_97
*1136 FILLER_39_106
*1137 FILLER_39_113
*1138 FILLER_39_125
*1139 FILLER_39_137
*1140 FILLER_39_149
*1141 FILLER_39_15
*1142 FILLER_39_161
*1143 FILLER_39_167
*1144 FILLER_39_169
*1145 FILLER_39_181
*1146 FILLER_39_193
*1147 FILLER_39_205
*1148 FILLER_39_217
*1149 FILLER_39_223
*1150 FILLER_39_225
*1151 FILLER_39_237
*1152 FILLER_39_249
*1153 FILLER_39_261
*1154 FILLER_39_27
*1155 FILLER_39_273
*1156 FILLER_39_279
*1157 FILLER_39_281
*1158 FILLER_39_293
*1159 FILLER_39_3
*1160 FILLER_39_39
*1161 FILLER_39_51
*1162 FILLER_39_55
*1163 FILLER_39_57
*1164 FILLER_39_69
*1165 FILLER_39_77
*1166 FILLER_39_86
*1167 FILLER_39_98
*1168 FILLER_3_103
*1169 FILLER_3_111
*1170 FILLER_3_113
*1171 FILLER_3_125
*1172 FILLER_3_144
*1173 FILLER_3_15
*1174 FILLER_3_156
*1175 FILLER_3_169
*1176 FILLER_3_181
*1177 FILLER_3_193
*1178 FILLER_3_205
*1179 FILLER_3_217
*1180 FILLER_3_223
*1181 FILLER_3_225
*1182 FILLER_3_237
*1183 FILLER_3_249
*1184 FILLER_3_261
*1185 FILLER_3_273
*1186 FILLER_3_279
*1187 FILLER_3_281
*1188 FILLER_3_293
*1189 FILLER_3_3
*1190 FILLER_3_36
*1191 FILLER_3_52
*1192 FILLER_3_73
*1193 FILLER_3_93
*1194 FILLER_40_104
*1195 FILLER_40_121
*1196 FILLER_40_133
*1197 FILLER_40_139
*1198 FILLER_40_141
*1199 FILLER_40_15
*1200 FILLER_40_153
*1201 FILLER_40_165
*1202 FILLER_40_177
*1203 FILLER_40_189
*1204 FILLER_40_195
*1205 FILLER_40_197
*1206 FILLER_40_209
*1207 FILLER_40_221
*1208 FILLER_40_233
*1209 FILLER_40_245
*1210 FILLER_40_251
*1211 FILLER_40_253
*1212 FILLER_40_265
*1213 FILLER_40_27
*1214 FILLER_40_277
*1215 FILLER_40_289
*1216 FILLER_40_29
*1217 FILLER_40_297
*1218 FILLER_40_3
*1219 FILLER_40_41
*1220 FILLER_40_53
*1221 FILLER_40_65
*1222 FILLER_40_77
*1223 FILLER_40_83
*1224 FILLER_40_85
*1225 FILLER_40_97
*1226 FILLER_41_105
*1227 FILLER_41_111
*1228 FILLER_41_113
*1229 FILLER_41_125
*1230 FILLER_41_137
*1231 FILLER_41_149
*1232 FILLER_41_15
*1233 FILLER_41_161
*1234 FILLER_41_167
*1235 FILLER_41_169
*1236 FILLER_41_181
*1237 FILLER_41_193
*1238 FILLER_41_205
*1239 FILLER_41_217
*1240 FILLER_41_223
*1241 FILLER_41_225
*1242 FILLER_41_237
*1243 FILLER_41_249
*1244 FILLER_41_261
*1245 FILLER_41_27
*1246 FILLER_41_273
*1247 FILLER_41_279
*1248 FILLER_41_281
*1249 FILLER_41_293
*1250 FILLER_41_3
*1251 FILLER_41_39
*1252 FILLER_41_51
*1253 FILLER_41_55
*1254 FILLER_41_57
*1255 FILLER_41_69
*1256 FILLER_41_81
*1257 FILLER_41_93
*1258 FILLER_42_109
*1259 FILLER_42_121
*1260 FILLER_42_133
*1261 FILLER_42_139
*1262 FILLER_42_141
*1263 FILLER_42_15
*1264 FILLER_42_153
*1265 FILLER_42_165
*1266 FILLER_42_177
*1267 FILLER_42_189
*1268 FILLER_42_195
*1269 FILLER_42_197
*1270 FILLER_42_209
*1271 FILLER_42_221
*1272 FILLER_42_233
*1273 FILLER_42_245
*1274 FILLER_42_251
*1275 FILLER_42_253
*1276 FILLER_42_265
*1277 FILLER_42_27
*1278 FILLER_42_277
*1279 FILLER_42_289
*1280 FILLER_42_29
*1281 FILLER_42_297
*1282 FILLER_42_3
*1283 FILLER_42_41
*1284 FILLER_42_53
*1285 FILLER_42_65
*1286 FILLER_42_77
*1287 FILLER_42_83
*1288 FILLER_42_85
*1289 FILLER_42_97
*1290 FILLER_43_105
*1291 FILLER_43_111
*1292 FILLER_43_113
*1293 FILLER_43_125
*1294 FILLER_43_129
*1295 FILLER_43_133
*1296 FILLER_43_145
*1297 FILLER_43_15
*1298 FILLER_43_157
*1299 FILLER_43_165
*1300 FILLER_43_169
*1301 FILLER_43_181
*1302 FILLER_43_193
*1303 FILLER_43_205
*1304 FILLER_43_217
*1305 FILLER_43_223
*1306 FILLER_43_225
*1307 FILLER_43_237
*1308 FILLER_43_249
*1309 FILLER_43_261
*1310 FILLER_43_27
*1311 FILLER_43_273
*1312 FILLER_43_279
*1313 FILLER_43_281
*1314 FILLER_43_293
*1315 FILLER_43_3
*1316 FILLER_43_39
*1317 FILLER_43_51
*1318 FILLER_43_55
*1319 FILLER_43_57
*1320 FILLER_43_69
*1321 FILLER_43_81
*1322 FILLER_43_93
*1323 FILLER_44_109
*1324 FILLER_44_121
*1325 FILLER_44_133
*1326 FILLER_44_139
*1327 FILLER_44_141
*1328 FILLER_44_15
*1329 FILLER_44_153
*1330 FILLER_44_165
*1331 FILLER_44_177
*1332 FILLER_44_189
*1333 FILLER_44_195
*1334 FILLER_44_197
*1335 FILLER_44_209
*1336 FILLER_44_221
*1337 FILLER_44_233
*1338 FILLER_44_245
*1339 FILLER_44_251
*1340 FILLER_44_253
*1341 FILLER_44_265
*1342 FILLER_44_27
*1343 FILLER_44_277
*1344 FILLER_44_289
*1345 FILLER_44_29
*1346 FILLER_44_297
*1347 FILLER_44_3
*1348 FILLER_44_41
*1349 FILLER_44_53
*1350 FILLER_44_65
*1351 FILLER_44_69
*1352 FILLER_44_73
*1353 FILLER_44_81
*1354 FILLER_44_85
*1355 FILLER_44_97
*1356 FILLER_45_103
*1357 FILLER_45_111
*1358 FILLER_45_113
*1359 FILLER_45_125
*1360 FILLER_45_137
*1361 FILLER_45_149
*1362 FILLER_45_15
*1363 FILLER_45_161
*1364 FILLER_45_167
*1365 FILLER_45_169
*1366 FILLER_45_181
*1367 FILLER_45_193
*1368 FILLER_45_205
*1369 FILLER_45_217
*1370 FILLER_45_223
*1371 FILLER_45_225
*1372 FILLER_45_237
*1373 FILLER_45_249
*1374 FILLER_45_261
*1375 FILLER_45_27
*1376 FILLER_45_273
*1377 FILLER_45_279
*1378 FILLER_45_281
*1379 FILLER_45_293
*1380 FILLER_45_3
*1381 FILLER_45_39
*1382 FILLER_45_51
*1383 FILLER_45_55
*1384 FILLER_45_57
*1385 FILLER_45_69
*1386 FILLER_45_81
*1387 FILLER_45_87
*1388 FILLER_45_91
*1389 FILLER_46_108
*1390 FILLER_46_120
*1391 FILLER_46_132
*1392 FILLER_46_136
*1393 FILLER_46_141
*1394 FILLER_46_15
*1395 FILLER_46_153
*1396 FILLER_46_165
*1397 FILLER_46_177
*1398 FILLER_46_189
*1399 FILLER_46_195
*1400 FILLER_46_197
*1401 FILLER_46_209
*1402 FILLER_46_221
*1403 FILLER_46_233
*1404 FILLER_46_245
*1405 FILLER_46_251
*1406 FILLER_46_253
*1407 FILLER_46_265
*1408 FILLER_46_27
*1409 FILLER_46_277
*1410 FILLER_46_289
*1411 FILLER_46_29
*1412 FILLER_46_297
*1413 FILLER_46_3
*1414 FILLER_46_41
*1415 FILLER_46_53
*1416 FILLER_46_65
*1417 FILLER_46_77
*1418 FILLER_46_83
*1419 FILLER_46_85
*1420 FILLER_46_97
*1421 FILLER_47_109
*1422 FILLER_47_113
*1423 FILLER_47_125
*1424 FILLER_47_137
*1425 FILLER_47_149
*1426 FILLER_47_15
*1427 FILLER_47_161
*1428 FILLER_47_167
*1429 FILLER_47_169
*1430 FILLER_47_181
*1431 FILLER_47_193
*1432 FILLER_47_205
*1433 FILLER_47_217
*1434 FILLER_47_223
*1435 FILLER_47_225
*1436 FILLER_47_237
*1437 FILLER_47_249
*1438 FILLER_47_261
*1439 FILLER_47_27
*1440 FILLER_47_273
*1441 FILLER_47_279
*1442 FILLER_47_281
*1443 FILLER_47_293
*1444 FILLER_47_3
*1445 FILLER_47_39
*1446 FILLER_47_51
*1447 FILLER_47_55
*1448 FILLER_47_57
*1449 FILLER_47_63
*1450 FILLER_47_67
*1451 FILLER_47_79
*1452 FILLER_47_83
*1453 FILLER_47_97
*1454 FILLER_48_109
*1455 FILLER_48_121
*1456 FILLER_48_133
*1457 FILLER_48_139
*1458 FILLER_48_141
*1459 FILLER_48_15
*1460 FILLER_48_153
*1461 FILLER_48_165
*1462 FILLER_48_177
*1463 FILLER_48_189
*1464 FILLER_48_195
*1465 FILLER_48_197
*1466 FILLER_48_209
*1467 FILLER_48_221
*1468 FILLER_48_233
*1469 FILLER_48_245
*1470 FILLER_48_251
*1471 FILLER_48_253
*1472 FILLER_48_265
*1473 FILLER_48_27
*1474 FILLER_48_277
*1475 FILLER_48_289
*1476 FILLER_48_29
*1477 FILLER_48_297
*1478 FILLER_48_3
*1479 FILLER_48_41
*1480 FILLER_48_53
*1481 FILLER_48_65
*1482 FILLER_48_77
*1483 FILLER_48_83
*1484 FILLER_48_85
*1485 FILLER_48_97
*1486 FILLER_49_105
*1487 FILLER_49_111
*1488 FILLER_49_113
*1489 FILLER_49_125
*1490 FILLER_49_137
*1491 FILLER_49_149
*1492 FILLER_49_15
*1493 FILLER_49_161
*1494 FILLER_49_167
*1495 FILLER_49_169
*1496 FILLER_49_181
*1497 FILLER_49_193
*1498 FILLER_49_205
*1499 FILLER_49_217
*1500 FILLER_49_223
*1501 FILLER_49_225
*1502 FILLER_49_237
*1503 FILLER_49_249
*1504 FILLER_49_261
*1505 FILLER_49_27
*1506 FILLER_49_273
*1507 FILLER_49_279
*1508 FILLER_49_281
*1509 FILLER_49_293
*1510 FILLER_49_3
*1511 FILLER_49_39
*1512 FILLER_49_51
*1513 FILLER_49_55
*1514 FILLER_49_57
*1515 FILLER_49_69
*1516 FILLER_49_81
*1517 FILLER_49_93
*1518 FILLER_4_101
*1519 FILLER_4_113
*1520 FILLER_4_125
*1521 FILLER_4_137
*1522 FILLER_4_141
*1523 FILLER_4_153
*1524 FILLER_4_165
*1525 FILLER_4_177
*1526 FILLER_4_189
*1527 FILLER_4_195
*1528 FILLER_4_197
*1529 FILLER_4_209
*1530 FILLER_4_221
*1531 FILLER_4_233
*1532 FILLER_4_24
*1533 FILLER_4_245
*1534 FILLER_4_251
*1535 FILLER_4_253
*1536 FILLER_4_265
*1537 FILLER_4_277
*1538 FILLER_4_289
*1539 FILLER_4_29
*1540 FILLER_4_297
*1541 FILLER_4_3
*1542 FILLER_4_41
*1543 FILLER_4_60
*1544 FILLER_4_80
*1545 FILLER_50_109
*1546 FILLER_50_121
*1547 FILLER_50_133
*1548 FILLER_50_139
*1549 FILLER_50_141
*1550 FILLER_50_15
*1551 FILLER_50_153
*1552 FILLER_50_165
*1553 FILLER_50_177
*1554 FILLER_50_189
*1555 FILLER_50_195
*1556 FILLER_50_197
*1557 FILLER_50_209
*1558 FILLER_50_221
*1559 FILLER_50_233
*1560 FILLER_50_245
*1561 FILLER_50_251
*1562 FILLER_50_253
*1563 FILLER_50_265
*1564 FILLER_50_27
*1565 FILLER_50_277
*1566 FILLER_50_289
*1567 FILLER_50_29
*1568 FILLER_50_297
*1569 FILLER_50_3
*1570 FILLER_50_41
*1571 FILLER_50_53
*1572 FILLER_50_65
*1573 FILLER_50_77
*1574 FILLER_50_83
*1575 FILLER_50_85
*1576 FILLER_50_97
*1577 FILLER_51_105
*1578 FILLER_51_111
*1579 FILLER_51_113
*1580 FILLER_51_125
*1581 FILLER_51_137
*1582 FILLER_51_149
*1583 FILLER_51_15
*1584 FILLER_51_161
*1585 FILLER_51_167
*1586 FILLER_51_169
*1587 FILLER_51_181
*1588 FILLER_51_193
*1589 FILLER_51_205
*1590 FILLER_51_217
*1591 FILLER_51_223
*1592 FILLER_51_225
*1593 FILLER_51_237
*1594 FILLER_51_249