*SPEF "ieee 1481-1999"
*DESIGN "noahgaertner_cpu"
*DATE "11:11:11 Fri 11 11, 1111"
*VENDOR "OpenRCX"
*PROGRAM "Parallel Extraction"
*VERSION "1.0"
*DESIGN_FLOW "NAME_SCOPE LOCAL" "PIN_CAP NONE"
*DIVIDER /
*DELIMITER :
*BUS_DELIMITER []
*T_UNIT 1 NS
*C_UNIT 1 PF
*R_UNIT 1 OHM
*L_UNIT 1 HENRY

*NAME_MAP
*1 io_in[0]
*2 io_in[1]
*3 io_in[2]
*4 io_in[3]
*5 io_in[4]
*6 io_in[5]
*7 io_in[6]
*8 io_in[7]
*9 io_out[0]
*10 io_out[1]
*11 io_out[2]
*12 io_out[3]
*13 io_out[4]
*14 io_out[5]
*15 io_out[6]
*16 io_out[7]
*19 _0000_
*20 _0001_
*21 _0002_
*22 _0003_
*23 _0004_
*24 _0005_
*25 _0006_
*26 _0007_
*27 _0008_
*28 _0009_
*29 _0010_
*30 _0011_
*31 _0012_
*32 _0013_
*33 _0014_
*34 _0015_
*35 _0016_
*36 _0017_
*37 _0018_
*38 _0019_
*39 _0020_
*40 _0021_
*41 _0022_
*42 _0023_
*43 _0024_
*44 _0025_
*45 _0026_
*46 _0027_
*47 _0028_
*48 _0029_
*49 _0030_
*50 _0031_
*51 _0032_
*52 _0033_
*53 _0034_
*54 _0035_
*55 _0036_
*56 _0037_
*57 _0038_
*58 _0039_
*59 _0040_
*60 _0041_
*61 _0042_
*62 _0043_
*63 _0044_
*64 _0045_
*65 _0046_
*66 _0047_
*67 _0048_
*68 _0049_
*69 _0050_
*70 _0051_
*71 _0052_
*72 _0053_
*73 _0054_
*74 _0055_
*75 _0056_
*76 _0057_
*77 _0058_
*78 _0059_
*79 _0060_
*80 _0061_
*81 _0062_
*82 _0063_
*83 _0064_
*84 _0065_
*85 _0066_
*86 _0067_
*87 _0068_
*88 _0069_
*89 _0070_
*90 _0071_
*91 _0072_
*92 _0073_
*93 _0074_
*94 _0075_
*95 _0076_
*96 _0077_
*97 _0078_
*98 _0079_
*99 _0080_
*100 _0081_
*101 _0082_
*102 _0083_
*103 _0084_
*104 _0085_
*105 _0086_
*106 _0087_
*107 _0088_
*108 _0089_
*109 _0090_
*110 _0091_
*111 _0092_
*112 _0093_
*113 _0094_
*114 _0095_
*115 _0096_
*116 _0097_
*117 _0098_
*118 _0099_
*119 _0100_
*120 _0101_
*121 _0102_
*122 _0103_
*123 _0104_
*124 _0105_
*125 _0106_
*126 _0107_
*127 _0108_
*128 _0109_
*129 _0110_
*130 _0111_
*131 _0112_
*132 _0113_
*133 _0114_
*134 _0115_
*135 _0116_
*136 _0117_
*137 _0118_
*138 _0119_
*139 _0120_
*140 _0121_
*141 _0122_
*142 _0123_
*143 _0124_
*144 _0125_
*145 _0126_
*146 _0127_
*147 _0128_
*148 _0129_
*149 _0130_
*150 _0131_
*151 _0132_
*152 _0133_
*153 _0134_
*154 _0135_
*155 _0136_
*156 _0137_
*157 _0138_
*158 _0139_
*159 _0140_
*160 _0141_
*161 _0142_
*162 _0143_
*163 _0144_
*164 _0145_
*165 _0146_
*166 _0147_
*167 _0148_
*168 _0149_
*169 _0150_
*170 _0151_
*171 _0152_
*172 _0153_
*173 _0154_
*174 _0155_
*175 _0156_
*176 _0157_
*177 _0158_
*178 _0159_
*179 _0160_
*180 _0161_
*181 _0162_
*182 _0163_
*183 _0164_
*184 _0165_
*185 _0166_
*186 _0167_
*187 _0168_
*188 _0169_
*189 _0170_
*190 _0171_
*191 _0172_
*192 _0173_
*193 _0174_
*194 _0175_
*195 _0176_
*196 _0177_
*197 _0178_
*198 _0179_
*199 _0180_
*200 _0181_
*201 _0182_
*202 _0183_
*203 _0184_
*204 _0185_
*205 _0186_
*206 _0187_
*207 _0188_
*208 _0189_
*209 _0190_
*210 _0191_
*211 _0192_
*212 _0193_
*213 _0194_
*214 _0195_
*215 _0196_
*216 _0197_
*217 _0198_
*218 _0199_
*219 _0200_
*220 _0201_
*221 _0202_
*222 _0203_
*223 _0204_
*224 _0205_
*225 _0206_
*226 _0207_
*227 _0208_
*228 _0209_
*229 _0210_
*230 _0211_
*231 _0212_
*232 _0213_
*233 _0214_
*234 _0215_
*235 _0216_
*236 _0217_
*237 _0218_
*238 _0219_
*239 _0220_
*240 _0221_
*241 _0222_
*242 _0223_
*243 _0224_
*244 _0225_
*245 _0226_
*246 _0227_
*247 _0228_
*248 _0229_
*249 _0230_
*250 _0231_
*251 _0232_
*252 _0233_
*253 _0234_
*254 _0235_
*255 _0236_
*256 _0237_
*257 _0238_
*258 _0239_
*259 _0240_
*260 _0241_
*261 _0242_
*262 _0243_
*263 _0244_
*264 _0245_
*265 _0246_
*266 _0247_
*267 _0248_
*268 _0249_
*269 _0250_
*270 _0251_
*271 _0252_
*272 _0253_
*273 _0254_
*274 _0255_
*275 _0256_
*276 _0257_
*277 _0258_
*278 _0259_
*279 _0260_
*280 _0261_
*281 _0262_
*282 _0263_
*283 _0264_
*284 _0265_
*285 _0266_
*286 _0267_
*287 _0268_
*288 _0269_
*289 _0270_
*290 _0271_
*291 _0272_
*292 _0273_
*293 _0274_
*294 _0275_
*295 _0276_
*296 _0277_
*297 _0278_
*298 _0279_
*299 _0280_
*300 _0281_
*301 _0282_
*302 _0283_
*303 _0284_
*304 _0285_
*305 _0286_
*306 _0287_
*307 _0288_
*308 _0289_
*309 _0290_
*310 _0291_
*311 _0292_
*312 _0293_
*313 _0294_
*314 _0295_
*315 _0296_
*316 _0297_
*317 _0298_
*318 _0299_
*319 _0300_
*320 _0301_
*321 _0302_
*322 _0303_
*323 _0304_
*324 _0305_
*325 _0306_
*326 _0307_
*327 _0308_
*328 _0309_
*329 _0310_
*330 _0311_
*331 _0312_
*332 _0313_
*333 _0314_
*334 _0315_
*335 _0316_
*336 _0317_
*337 _0318_
*338 _0319_
*339 _0320_
*340 _0321_
*341 _0322_
*342 _0323_
*343 _0324_
*344 _0325_
*345 _0326_
*346 _0327_
*347 _0328_
*348 _0329_
*349 _0330_
*350 _0331_
*351 _0332_
*352 _0333_
*353 _0334_
*354 _0335_
*355 _0336_
*356 _0337_
*357 _0338_
*358 _0339_
*359 _0340_
*360 _0341_
*361 _0342_
*362 _0343_
*363 _0344_
*364 _0345_
*365 _0346_
*366 _0347_
*367 _0348_
*368 _0349_
*369 _0350_
*370 _0351_
*371 _0352_
*372 _0353_
*373 _0354_
*374 _0355_
*375 _0356_
*376 _0357_
*377 _0358_
*378 _0359_
*379 _0360_
*380 _0361_
*381 _0362_
*382 _0363_
*383 _0364_
*384 _0365_
*385 _0366_
*386 _0367_
*387 _0368_
*388 _0369_
*389 _0370_
*390 _0371_
*391 _0372_
*392 _0373_
*393 _0374_
*394 _0375_
*395 _0376_
*396 _0377_
*397 _0378_
*398 _0379_
*399 _0380_
*400 _0381_
*401 _0382_
*402 _0383_
*403 _0384_
*404 _0385_
*405 _0386_
*406 _0387_
*407 _0388_
*408 _0389_
*409 _0390_
*410 _0391_
*411 _0392_
*412 _0393_
*413 _0394_
*414 _0395_
*415 _0396_
*416 _0397_
*417 _0398_
*418 _0399_
*419 _0400_
*420 _0401_
*421 _0402_
*422 _0403_
*423 _0404_
*424 _0405_
*425 _0406_
*426 _0407_
*427 _0408_
*428 _0409_
*429 _0410_
*430 _0411_
*431 _0412_
*432 _0413_
*433 _0414_
*434 _0415_
*435 _0416_
*436 _0417_
*437 _0418_
*438 _0419_
*439 _0420_
*440 _0421_
*441 _0422_
*442 _0423_
*443 _0424_
*444 _0425_
*445 _0426_
*446 _0427_
*447 _0428_
*448 _0429_
*449 _0430_
*450 _0431_
*451 _0432_
*452 _0433_
*453 _0434_
*454 _0435_
*455 _0436_
*456 _0437_
*457 _0438_
*458 _0439_
*459 _0440_
*460 _0441_
*461 _0442_
*462 _0443_
*463 _0444_
*464 _0445_
*465 _0446_
*466 _0447_
*467 _0448_
*468 _0449_
*469 _0450_
*470 _0451_
*471 _0452_
*472 _0453_
*473 _0454_
*474 _0455_
*475 _0456_
*476 _0457_
*477 _0458_
*478 _0459_
*479 _0460_
*480 _0461_
*481 _0462_
*482 _0463_
*483 _0464_
*484 _0465_
*485 _0466_
*486 _0467_
*487 _0468_
*488 _0469_
*489 _0470_
*490 _0471_
*491 _0472_
*492 _0473_
*493 _0474_
*494 _0475_
*495 _0476_
*496 _0477_
*497 _0478_
*498 _0479_
*499 _0480_
*500 _0481_
*501 _0482_
*502 _0483_
*503 _0484_
*504 _0485_
*505 _0486_
*506 _0487_
*507 _0488_
*508 _0489_
*509 _0490_
*510 _0491_
*511 _0492_
*512 _0493_
*513 _0494_
*514 _0495_
*515 _0496_
*516 _0497_
*517 _0498_
*518 _0499_
*519 _0500_
*520 _0501_
*521 _0502_
*522 _0503_
*523 _0504_
*524 _0505_
*525 _0506_
*526 _0507_
*527 _0508_
*528 _0509_
*529 _0510_
*530 _0511_
*531 _0512_
*532 _0513_
*533 _0514_
*534 _0515_
*535 _0516_
*536 _0517_
*537 _0518_
*538 _0519_
*539 _0520_
*540 _0521_
*541 _0522_
*542 _0523_
*543 _0524_
*544 _0525_
*545 _0526_
*546 _0527_
*547 _0528_
*548 _0529_
*549 _0530_
*550 _0531_
*551 _0532_
*552 _0533_
*553 _0534_
*554 _0535_
*555 _0536_
*556 _0537_
*557 _0538_
*558 _0539_
*559 _0540_
*560 _0541_
*561 _0542_
*562 _0543_
*563 _0544_
*564 _0545_
*565 _0546_
*566 _0547_
*567 _0548_
*568 _0549_
*569 _0550_
*570 _0551_
*571 _0552_
*572 _0553_
*573 _0554_
*574 _0555_
*575 _0556_
*576 _0557_
*577 _0558_
*578 _0559_
*579 _0560_
*580 _0561_
*581 _0562_
*582 _0563_
*583 _0564_
*584 _0565_
*585 _0566_
*586 _0567_
*587 _0568_
*588 _0569_
*589 _0570_
*590 _0571_
*591 _0572_
*592 _0573_
*593 _0574_
*594 _0575_
*595 _0576_
*596 _0577_
*597 _0578_
*598 _0579_
*599 _0580_
*600 _0581_
*601 _0582_
*602 _0583_
*603 _0584_
*604 _0585_
*605 _0586_
*606 _0587_
*607 _0588_
*608 _0589_
*609 _0590_
*610 _0591_
*611 _0592_
*612 _0593_
*613 _0594_
*614 _0595_
*615 _0596_
*616 _0597_
*617 _0598_
*618 _0599_
*619 _0600_
*620 _0601_
*621 _0602_
*622 _0603_
*623 _0604_
*624 _0605_
*625 _0606_
*626 _0607_
*627 _0608_
*628 _0609_
*629 _0610_
*630 _0611_
*631 _0612_
*632 _0613_
*633 _0614_
*634 _0615_
*635 _0616_
*636 _0617_
*637 _0618_
*638 _0619_
*639 _0620_
*640 _0621_
*641 _0622_
*642 _0623_
*643 _0624_
*644 _0625_
*645 _0626_
*646 _0627_
*647 _0628_
*648 _0629_
*649 _0630_
*650 _0631_
*651 _0632_
*652 _0633_
*653 _0634_
*654 _0635_
*655 _0636_
*656 _0637_
*657 _0638_
*658 _0639_
*659 _0640_
*660 _0641_
*661 _0642_
*662 _0643_
*663 _0644_
*664 _0645_
*665 _0646_
*666 _0647_
*667 _0648_
*668 _0649_
*669 _0650_
*670 _0651_
*671 _0652_
*672 _0653_
*673 _0654_
*674 _0655_
*675 _0656_
*676 _0657_
*677 _0658_
*678 _0659_
*679 _0660_
*680 _0661_
*681 _0662_
*682 _0663_
*683 _0664_
*684 _0665_
*685 _0666_
*686 _0667_
*687 _0668_
*688 _0669_
*689 _0670_
*690 _0671_
*691 _0672_
*692 _0673_
*693 _0674_
*694 _0675_
*695 _0676_
*696 _0677_
*697 _0678_
*698 _0679_
*699 _0680_
*700 _0681_
*701 _0682_
*702 _0683_
*703 _0684_
*704 _0685_
*705 _0686_
*706 _0687_
*707 _0688_
*708 _0689_
*709 _0690_
*710 _0691_
*711 _0692_
*712 _0693_
*713 _0694_
*714 _0695_
*715 _0696_
*716 _0697_
*717 _0698_
*718 _0699_
*719 _0700_
*720 _0701_
*721 _0702_
*722 _0703_
*723 _0704_
*724 _0705_
*725 _0706_
*726 _0707_
*727 _0708_
*728 _0709_
*729 _0710_
*730 _0711_
*731 _0712_
*732 _0713_
*733 _0714_
*734 _0715_
*735 _0716_
*736 _0717_
*737 _0718_
*738 _0719_
*739 _0720_
*740 _0721_
*741 _0722_
*742 _0723_
*743 _0724_
*744 _0725_
*745 _0726_
*746 _0727_
*747 _0728_
*748 _0729_
*749 _0730_
*750 _0731_
*751 _0732_
*752 _0733_
*753 _0734_
*754 _0735_
*755 _0736_
*756 _0737_
*757 _0738_
*758 _0739_
*759 _0740_
*760 _0741_
*761 _0742_
*762 _0743_
*763 _0744_
*764 _0745_
*765 _0746_
*766 _0747_
*767 _0748_
*768 _0749_
*769 _0750_
*770 _0751_
*771 _0752_
*772 _0753_
*773 clknet_0_io_in[0]
*774 clknet_4_0_0_io_in[0]
*775 clknet_4_10_0_io_in[0]
*776 clknet_4_11_0_io_in[0]
*777 clknet_4_12_0_io_in[0]
*778 clknet_4_13_0_io_in[0]
*779 clknet_4_14_0_io_in[0]
*780 clknet_4_15_0_io_in[0]
*781 clknet_4_1_0_io_in[0]
*782 clknet_4_2_0_io_in[0]
*783 clknet_4_3_0_io_in[0]
*784 clknet_4_4_0_io_in[0]
*785 clknet_4_5_0_io_in[0]
*786 clknet_4_6_0_io_in[0]
*787 clknet_4_7_0_io_in[0]
*788 clknet_4_8_0_io_in[0]
*789 clknet_4_9_0_io_in[0]
*790 data\[0\]\[0\]
*791 data\[0\]\[1\]
*792 data\[0\]\[2\]
*793 data\[0\]\[3\]
*794 data\[10\]\[0\]
*795 data\[10\]\[1\]
*796 data\[10\]\[2\]
*797 data\[10\]\[3\]
*798 data\[11\]\[0\]
*799 data\[11\]\[1\]
*800 data\[11\]\[2\]
*801 data\[11\]\[3\]
*802 data\[12\]\[0\]
*803 data\[12\]\[1\]
*804 data\[12\]\[2\]
*805 data\[12\]\[3\]
*806 data\[13\]\[0\]
*807 data\[13\]\[1\]
*808 data\[13\]\[2\]
*809 data\[13\]\[3\]
*810 data\[14\]\[0\]
*811 data\[14\]\[1\]
*812 data\[14\]\[2\]
*813 data\[14\]\[3\]
*814 data\[15\]\[0\]
*815 data\[15\]\[1\]
*816 data\[15\]\[2\]
*817 data\[15\]\[3\]
*818 data\[1\]\[0\]
*819 data\[1\]\[1\]
*820 data\[1\]\[2\]
*821 data\[1\]\[3\]
*822 data\[2\]\[0\]
*823 data\[2\]\[1\]
*824 data\[2\]\[2\]
*825 data\[2\]\[3\]
*826 data\[3\]\[0\]
*827 data\[3\]\[1\]
*828 data\[3\]\[2\]
*829 data\[3\]\[3\]
*830 data\[4\]\[0\]
*831 data\[4\]\[1\]
*832 data\[4\]\[2\]
*833 data\[4\]\[3\]
*834 data\[5\]\[0\]
*835 data\[5\]\[1\]
*836 data\[5\]\[2\]
*837 data\[5\]\[3\]
*838 data\[6\]\[0\]
*839 data\[6\]\[1\]
*840 data\[6\]\[2\]
*841 data\[6\]\[3\]
*842 data\[7\]\[0\]
*843 data\[7\]\[1\]
*844 data\[7\]\[2\]
*845 data\[7\]\[3\]
*846 data\[8\]\[0\]
*847 data\[8\]\[1\]
*848 data\[8\]\[2\]
*849 data\[8\]\[3\]
*850 data\[9\]\[0\]
*851 data\[9\]\[1\]
*852 data\[9\]\[2\]
*853 data\[9\]\[3\]
*854 lastdata3
*855 net1
*856 net2
*857 net3
*858 net4
*859 net5
*860 net6
*861 net7
*862 prog\[0\]\[0\]
*863 prog\[0\]\[1\]
*864 prog\[0\]\[2\]
*865 prog\[0\]\[3\]
*866 prog\[10\]\[0\]
*867 prog\[10\]\[1\]
*868 prog\[10\]\[2\]
*869 prog\[10\]\[3\]
*870 prog\[11\]\[0\]
*871 prog\[11\]\[1\]
*872 prog\[11\]\[2\]
*873 prog\[11\]\[3\]
*874 prog\[12\]\[0\]
*875 prog\[12\]\[1\]
*876 prog\[12\]\[2\]
*877 prog\[12\]\[3\]
*878 prog\[13\]\[0\]
*879 prog\[13\]\[1\]
*880 prog\[13\]\[2\]
*881 prog\[13\]\[3\]
*882 prog\[14\]\[0\]
*883 prog\[14\]\[1\]
*884 prog\[14\]\[2\]
*885 prog\[14\]\[3\]
*886 prog\[15\]\[0\]
*887 prog\[15\]\[1\]
*888 prog\[15\]\[2\]
*889 prog\[15\]\[3\]
*890 prog\[1\]\[0\]
*891 prog\[1\]\[1\]
*892 prog\[1\]\[2\]
*893 prog\[1\]\[3\]
*894 prog\[2\]\[0\]
*895 prog\[2\]\[1\]
*896 prog\[2\]\[2\]
*897 prog\[2\]\[3\]
*898 prog\[3\]\[0\]
*899 prog\[3\]\[1\]
*900 prog\[3\]\[2\]
*901 prog\[3\]\[3\]
*902 prog\[4\]\[0\]
*903 prog\[4\]\[1\]
*904 prog\[4\]\[2\]
*905 prog\[4\]\[3\]
*906 prog\[5\]\[0\]
*907 prog\[5\]\[1\]
*908 prog\[5\]\[2\]
*909 prog\[5\]\[3\]
*910 prog\[6\]\[0\]
*911 prog\[6\]\[1\]
*912 prog\[6\]\[2\]
*913 prog\[6\]\[3\]
*914 prog\[7\]\[0\]
*915 prog\[7\]\[1\]
*916 prog\[7\]\[2\]
*917 prog\[7\]\[3\]
*918 prog\[8\]\[0\]
*919 prog\[8\]\[1\]
*920 prog\[8\]\[2\]
*921 prog\[8\]\[3\]
*922 prog\[9\]\[0\]
*923 prog\[9\]\[1\]
*924 prog\[9\]\[2\]
*925 prog\[9\]\[3\]
*926 ANTENNA_0
*927 ANTENNA_1
*928 ANTENNA_10
*929 ANTENNA_11
*930 ANTENNA_12
*931 ANTENNA_13
*932 ANTENNA_14
*933 ANTENNA_15
*934 ANTENNA_16
*935 ANTENNA_17
*936 ANTENNA_18
*937 ANTENNA_19
*938 ANTENNA_2
*939 ANTENNA_20
*940 ANTENNA_21
*941 ANTENNA_22
*942 ANTENNA_23
*943 ANTENNA_24
*944 ANTENNA_25
*945 ANTENNA_26
*946 ANTENNA_27
*947 ANTENNA_28
*948 ANTENNA_29
*949 ANTENNA_3
*950 ANTENNA_30
*951 ANTENNA_31
*952 ANTENNA_4
*953 ANTENNA_5
*954 ANTENNA_6
*955 ANTENNA_7
*956 ANTENNA_8
*957 ANTENNA_9
*958 FILLER_0_101
*959 FILLER_0_109
*960 FILLER_0_129
*961 FILLER_0_136
*962 FILLER_0_151
*963 FILLER_0_163
*964 FILLER_0_167
*965 FILLER_0_172
*966 FILLER_0_180
*967 FILLER_0_190
*968 FILLER_0_197
*969 FILLER_0_205
*970 FILLER_0_209
*971 FILLER_0_220
*972 FILLER_0_228
*973 FILLER_0_234
*974 FILLER_0_24
*975 FILLER_0_245
*976 FILLER_0_251
*977 FILLER_0_258
*978 FILLER_0_262
*979 FILLER_0_267
*980 FILLER_0_276
*981 FILLER_0_281
*982 FILLER_0_286
*983 FILLER_0_29
*984 FILLER_0_295
*985 FILLER_0_3
*986 FILLER_0_35
*987 FILLER_0_52
*988 FILLER_0_57
*989 FILLER_0_63
*990 FILLER_0_7
*991 FILLER_0_80
*992 FILLER_10_101
*993 FILLER_10_113
*994 FILLER_10_125
*995 FILLER_10_134
*996 FILLER_10_141
*997 FILLER_10_152
*998 FILLER_10_160
*999 FILLER_10_166
*1000 FILLER_10_178
*1001 FILLER_10_190
*1002 FILLER_10_194
*1003 FILLER_10_218
*1004 FILLER_10_22
*1005 FILLER_10_222
*1006 FILLER_10_236
*1007 FILLER_10_246
*1008 FILLER_10_253
*1009 FILLER_10_268
*1010 FILLER_10_272
*1011 FILLER_10_282
*1012 FILLER_10_29
*1013 FILLER_10_295
*1014 FILLER_10_3
*1015 FILLER_10_35
*1016 FILLER_10_52
*1017 FILLER_10_62
*1018 FILLER_10_80
*1019 FILLER_11_101
*1020 FILLER_11_109
*1021 FILLER_11_11
*1022 FILLER_11_113
*1023 FILLER_11_122
*1024 FILLER_11_129
*1025 FILLER_11_15
*1026 FILLER_11_156
*1027 FILLER_11_169
*1028 FILLER_11_179
*1029 FILLER_11_188
*1030 FILLER_11_192
*1031 FILLER_11_201
*1032 FILLER_11_209
*1033 FILLER_11_213
*1034 FILLER_11_220
*1035 FILLER_11_234
*1036 FILLER_11_251
*1037 FILLER_11_265
*1038 FILLER_11_274
*1039 FILLER_11_281
*1040 FILLER_11_295
*1041 FILLER_11_3
*1042 FILLER_11_32
*1043 FILLER_11_52
*1044 FILLER_11_68
*1045 FILLER_11_72
*1046 FILLER_11_89
*1047 FILLER_12_109
*1048 FILLER_12_121
*1049 FILLER_12_133
*1050 FILLER_12_139
*1051 FILLER_12_141
*1052 FILLER_12_149
*1053 FILLER_12_178
*1054 FILLER_12_190
*1055 FILLER_12_197
*1056 FILLER_12_209
*1057 FILLER_12_214
*1058 FILLER_12_22
*1059 FILLER_12_223
*1060 FILLER_12_236
*1061 FILLER_12_248
*1062 FILLER_12_253
*1063 FILLER_12_276
*1064 FILLER_12_289
*1065 FILLER_12_29
*1066 FILLER_12_297
*1067 FILLER_12_3
*1068 FILLER_12_47
*1069 FILLER_12_59
*1070 FILLER_12_63
*1071 FILLER_12_80
*1072 FILLER_12_85
*1073 FILLER_12_97
*1074 FILLER_13_102
*1075 FILLER_13_110
*1076 FILLER_13_113
*1077 FILLER_13_125
*1078 FILLER_13_139
*1079 FILLER_13_150
*1080 FILLER_13_157
*1081 FILLER_13_165
*1082 FILLER_13_169
*1083 FILLER_13_176
*1084 FILLER_13_183
*1085 FILLER_13_19
*1086 FILLER_13_191
*1087 FILLER_13_195
*1088 FILLER_13_220
*1089 FILLER_13_225
*1090 FILLER_13_232
*1091 FILLER_13_245
*1092 FILLER_13_258
*1093 FILLER_13_27
*1094 FILLER_13_272
*1095 FILLER_13_281
*1096 FILLER_13_295
*1097 FILLER_13_35
*1098 FILLER_13_52
*1099 FILLER_13_57
*1100 FILLER_13_69
*1101 FILLER_13_72
*1102 FILLER_13_90
*1103 FILLER_14_109
*1104 FILLER_14_120
*1105 FILLER_14_132
*1106 FILLER_14_151
*1107 FILLER_14_163
*1108 FILLER_14_171
*1109 FILLER_14_179
*1110 FILLER_14_19
*1111 FILLER_14_191
*1112 FILLER_14_195
*1113 FILLER_14_200
*1114 FILLER_14_204
*1115 FILLER_14_215
*1116 FILLER_14_221
*1117 FILLER_14_227
*1118 FILLER_14_23
*1119 FILLER_14_240
*1120 FILLER_14_248
*1121 FILLER_14_253
*1122 FILLER_14_261
*1123 FILLER_14_269
*1124 FILLER_14_27
*1125 FILLER_14_281
*1126 FILLER_14_29
*1127 FILLER_14_294
*1128 FILLER_14_298
*1129 FILLER_14_41
*1130 FILLER_14_60
*1131 FILLER_14_80
*1132 FILLER_14_85
*1133 FILLER_14_97
*1134 FILLER_15_104
*1135 FILLER_15_113
*1136 FILLER_15_125
*1137 FILLER_15_133
*1138 FILLER_15_140
*1139 FILLER_15_151
*1140 FILLER_15_163
*1141 FILLER_15_167
*1142 FILLER_15_169
*1143 FILLER_15_181
*1144 FILLER_15_19
*1145 FILLER_15_193
*1146 FILLER_15_203
*1147 FILLER_15_215
*1148 FILLER_15_223
*1149 FILLER_15_225
*1150 FILLER_15_231
*1151 FILLER_15_240
*1152 FILLER_15_253
*1153 FILLER_15_257
*1154 FILLER_15_263
*1155 FILLER_15_274
*1156 FILLER_15_278
*1157 FILLER_15_281
*1158 FILLER_15_285
*1159 FILLER_15_295
*1160 FILLER_15_31
*1161 FILLER_15_48
*1162 FILLER_15_68
*1163 FILLER_15_72
*1164 FILLER_15_92
*1165 FILLER_16_109
*1166 FILLER_16_121
*1167 FILLER_16_133
*1168 FILLER_16_139
*1169 FILLER_16_149
*1170 FILLER_16_157
*1171 FILLER_16_171
*1172 FILLER_16_179
*1173 FILLER_16_191
*1174 FILLER_16_195
*1175 FILLER_16_197
*1176 FILLER_16_205
*1177 FILLER_16_216
*1178 FILLER_16_224
*1179 FILLER_16_229
*1180 FILLER_16_23
*1181 FILLER_16_237
*1182 FILLER_16_244
*1183 FILLER_16_253
*1184 FILLER_16_257
*1185 FILLER_16_268
*1186 FILLER_16_27
*1187 FILLER_16_277
*1188 FILLER_16_291
*1189 FILLER_16_3
*1190 FILLER_16_46
*1191 FILLER_16_58
*1192 FILLER_16_80
*1193 FILLER_16_85
*1194 FILLER_16_97
*1195 FILLER_17_10
*1196 FILLER_17_108
*1197 FILLER_17_113
*1198 FILLER_17_123
*1199 FILLER_17_135
*1200 FILLER_17_14
*1201 FILLER_17_147
*1202 FILLER_17_156
*1203 FILLER_17_164
*1204 FILLER_17_173
*1205 FILLER_17_186
*1206 FILLER_17_194
*1207 FILLER_17_206
*1208 FILLER_17_218
*1209 FILLER_17_234
*1210 FILLER_17_241
*1211 FILLER_17_258
*1212 FILLER_17_271
*1213 FILLER_17_279
*1214 FILLER_17_291
*1215 FILLER_17_3
*1216 FILLER_17_32
*1217 FILLER_17_52
*1218 FILLER_17_57
*1219 FILLER_17_69
*1220 FILLER_17_88
*1221 FILLER_18_109
*1222 FILLER_18_117
*1223 FILLER_18_124
*1224 FILLER_18_136
*1225 FILLER_18_141
*1226 FILLER_18_145
*1227 FILLER_18_167
*1228 FILLER_18_179
*1229 FILLER_18_187
*1230 FILLER_18_19
*1231 FILLER_18_195
*1232 FILLER_18_197
*1233 FILLER_18_205
*1234 FILLER_18_216
*1235 FILLER_18_224
*1236 FILLER_18_231
*1237 FILLER_18_247
*1238 FILLER_18_251
*1239 FILLER_18_253
*1240 FILLER_18_266
*1241 FILLER_18_27
*1242 FILLER_18_275
*1243 FILLER_18_281
*1244 FILLER_18_292
*1245 FILLER_18_298
*1246 FILLER_18_35
*1247 FILLER_18_43
*1248 FILLER_18_60
*1249 FILLER_18_80
*1250 FILLER_18_85
*1251 FILLER_18_97
*1252 FILLER_19_107
*1253 FILLER_19_111
*1254 FILLER_19_113
*1255 FILLER_19_125
*1256 FILLER_19_131
*1257 FILLER_19_140
*1258 FILLER_19_152
*1259 FILLER_19_164
*1260 FILLER_19_169
*1261 FILLER_19_180
*1262 FILLER_19_188
*1263 FILLER_19_19
*1264 FILLER_19_196
*1265 FILLER_19_209
*1266 FILLER_19_217
*1267 FILLER_19_223
*1268 FILLER_19_234
*1269 FILLER_19_243
*1270 FILLER_19_250
*1271 FILLER_19_263
*1272 FILLER_19_27
*1273 FILLER_19_271
*1274 FILLER_19_279
*1275 FILLER_19_286
*1276 FILLER_19_295
*1277 FILLER_19_46
*1278 FILLER_19_54
*1279 FILLER_19_57
*1280 FILLER_19_69
*1281 FILLER_19_87
*1282 FILLER_1_107
*1283 FILLER_1_111
*1284 FILLER_1_113
*1285 FILLER_1_135
*1286 FILLER_1_139
*1287 FILLER_1_15
*1288 FILLER_1_150
*1289 FILLER_1_162
*1290 FILLER_1_177
*1291 FILLER_1_189
*1292 FILLER_1_197
*1293 FILLER_1_206
*1294 FILLER_1_220
*1295 FILLER_1_225
*1296 FILLER_1_250
*1297 FILLER_1_254
*1298 FILLER_1_266
*1299 FILLER_1_273
*1300 FILLER_1_279
*1301 FILLER_1_291
*1302 FILLER_1_3
*1303 FILLER_1_32
*1304 FILLER_1_52
*1305 FILLER_1_57
*1306 FILLER_1_65
*1307 FILLER_1_69
*1308 FILLER_1_87
*1309 FILLER_20_101
*1310 FILLER_20_116
*1311 FILLER_20_128
*1312 FILLER_20_133
*1313 FILLER_20_139
*1314 FILLER_20_141
*1315 FILLER_20_151
*1316 FILLER_20_155
*1317 FILLER_20_160
*1318 FILLER_20_166
*1319 FILLER_20_177
*1320 FILLER_20_189
*1321 FILLER_20_19
*1322 FILLER_20_195
*1323 FILLER_20_197
*1324 FILLER_20_209
*1325 FILLER_20_221
*1326 FILLER_20_228
*1327 FILLER_20_240
*1328 FILLER_20_247
*1329 FILLER_20_251
*1330 FILLER_20_253
*1331 FILLER_20_259
*1332 FILLER_20_262
*1333 FILLER_20_27
*1334 FILLER_20_285
*1335 FILLER_20_294
*1336 FILLER_20_298
*1337 FILLER_20_45
*1338 FILLER_20_60
*1339 FILLER_20_80
*1340 FILLER_21_111
*1341 FILLER_21_113
*1342 FILLER_21_120
*1343 FILLER_21_128
*1344 FILLER_21_152
*1345 FILLER_21_156
*1346 FILLER_21_16
*1347 FILLER_21_164
*1348 FILLER_21_169
*1349 FILLER_21_173
*1350 FILLER_21_195
*1351 FILLER_21_210
*1352 FILLER_21_222
*1353 FILLER_21_246
*1354 FILLER_21_257
*1355 FILLER_21_269
*1356 FILLER_21_276
*1357 FILLER_21_284
*1358 FILLER_21_295
*1359 FILLER_21_3
*1360 FILLER_21_36
*1361 FILLER_21_48
*1362 FILLER_21_57
*1363 FILLER_21_69
*1364 FILLER_21_87
*1365 FILLER_21_99
*1366 FILLER_22_109
*1367 FILLER_22_115
*1368 FILLER_22_127
*1369 FILLER_22_139
*1370 FILLER_22_141
*1371 FILLER_22_145
*1372 FILLER_22_163
*1373 FILLER_22_176
*1374 FILLER_22_192
*1375 FILLER_22_197
*1376 FILLER_22_209
*1377 FILLER_22_22
*1378 FILLER_22_220
*1379 FILLER_22_232
*1380 FILLER_22_240
*1381 FILLER_22_247
*1382 FILLER_22_251
*1383 FILLER_22_253
*1384 FILLER_22_26
*1385 FILLER_22_265
*1386 FILLER_22_281
*1387 FILLER_22_29
*1388 FILLER_22_295
*1389 FILLER_22_3
*1390 FILLER_22_33
*1391 FILLER_22_50
*1392 FILLER_22_62
*1393 FILLER_22_80
*1394 FILLER_22_85
*1395 FILLER_22_97
*1396 FILLER_23_102
*1397 FILLER_23_110
*1398 FILLER_23_113
*1399 FILLER_23_125
*1400 FILLER_23_133
*1401 FILLER_23_139
*1402 FILLER_23_151
*1403 FILLER_23_163
*1404 FILLER_23_167
*1405 FILLER_23_169
*1406 FILLER_23_173
*1407 FILLER_23_178
*1408 FILLER_23_186
*1409 FILLER_23_194
*1410 FILLER_23_201
*1411 FILLER_23_207
*1412 FILLER_23_213
*1413 FILLER_23_220
*1414 FILLER_23_225
*1415 FILLER_23_242
*1416 FILLER_23_25
*1417 FILLER_23_250
*1418 FILLER_23_272
*1419 FILLER_23_290
*1420 FILLER_23_298
*1421 FILLER_23_3
*1422 FILLER_23_33
*1423 FILLER_23_52
*1424 FILLER_23_57
*1425 FILLER_23_69
*1426 FILLER_23_90
*1427 FILLER_24_101
*1428 FILLER_24_117
*1429 FILLER_24_129
*1430 FILLER_24_137
*1431 FILLER_24_141
*1432 FILLER_24_154
*1433 FILLER_24_166
*1434 FILLER_24_178
*1435 FILLER_24_182
*1436 FILLER_24_186
*1437 FILLER_24_194
*1438 FILLER_24_197
*1439 FILLER_24_20
*1440 FILLER_24_202
*1441 FILLER_24_209
*1442 FILLER_24_221
*1443 FILLER_24_232
*1444 FILLER_24_246
*1445 FILLER_24_258
*1446 FILLER_24_266
*1447 FILLER_24_274
*1448 FILLER_24_287
*1449 FILLER_24_29
*1450 FILLER_24_295
*1451 FILLER_24_3
*1452 FILLER_24_51
*1453 FILLER_24_75
*1454 FILLER_24_83
*1455 FILLER_25_106
*1456 FILLER_25_113
*1457 FILLER_25_117
*1458 FILLER_25_126
*1459 FILLER_25_135
*1460 FILLER_25_15
*1461 FILLER_25_160
*1462 FILLER_25_172
*1463 FILLER_25_184
*1464 FILLER_25_194
*1465 FILLER_25_198
*1466 FILLER_25_220
*1467 FILLER_25_225
*1468 FILLER_25_233
*1469 FILLER_25_246
*1470 FILLER_25_258
*1471 FILLER_25_27
*1472 FILLER_25_275
*1473 FILLER_25_279
*1474 FILLER_25_281
*1475 FILLER_25_285
*1476 FILLER_25_293
*1477 FILLER_25_33
*1478 FILLER_25_50
*1479 FILLER_25_57
*1480 FILLER_25_69
*1481 FILLER_25_7
*1482 FILLER_25_86
*1483 FILLER_26_103
*1484 FILLER_26_119
*1485 FILLER_26_127
*1486 FILLER_26_139
*1487 FILLER_26_141
*1488 FILLER_26_153
*1489 FILLER_26_163
*1490 FILLER_26_169
*1491 FILLER_26_175
*1492 FILLER_26_187
*1493 FILLER_26_19
*1494 FILLER_26_195
*1495 FILLER_26_202
*1496 FILLER_26_208
*1497 FILLER_26_213
*1498 FILLER_26_225
*1499 FILLER_26_241
*1500 FILLER_26_249
*1501 FILLER_26_253
*1502 FILLER_26_265
*1503 FILLER_26_27
*1504 FILLER_26_271
*1505 FILLER_26_277
*1506 FILLER_26_283
*1507 FILLER_26_29
*1508 FILLER_26_294
*1509 FILLER_26_298
*1510 FILLER_26_58
*1511 FILLER_26_80
*1512 FILLER_26_85
*1513 FILLER_26_91
*1514 FILLER_27_106
*1515 FILLER_27_120
*1516 FILLER_27_127
*1517 FILLER_27_141
*1518 FILLER_27_155
*1519 FILLER_27_167
*1520 FILLER_27_19
*1521 FILLER_27_190
*1522 FILLER_27_215
*1523 FILLER_27_223
*1524 FILLER_27_246
*1525 FILLER_27_259
*1526 FILLER_27_267
*1527 FILLER_27_276
*1528 FILLER_27_286
*1529 FILLER_27_298
*1530 FILLER_27_34
*1531 FILLER_27_40
*1532 FILLER_27_52
*1533 FILLER_27_57
*1534 FILLER_27_69
*1535 FILLER_27_86
*1536 FILLER_28_103
*1537 FILLER_28_107
*1538 FILLER_28_115
*1539 FILLER_28_125
*1540 FILLER_28_133
*1541 FILLER_28_139
*1542 FILLER_28_147
*1543 FILLER_28_151
*1544 FILLER_28_158
*1545 FILLER_28_167
*1546 FILLER_28_179
*1547 FILLER_28_191
*1548 FILLER_28_195
*1549 FILLER_28_197
*1550 FILLER_28_201
*1551 FILLER_28_224
*1552 FILLER_28_236
*1553 FILLER_28_24
*1554 FILLER_28_242
*1555 FILLER_28_247
*1556 FILLER_28_251
*1557 FILLER_28_253
*1558 FILLER_28_265
*1559 FILLER_28_276
*1560 FILLER_28_289
*1561 FILLER_28_29
*1562 FILLER_28_297
*1563 FILLER_28_3
*1564 FILLER_28_41
*1565 FILLER_28_53
*1566 FILLER_28_66
*1567 FILLER_28_7
*1568 FILLER_28_78
*1569 FILLER_28_85
*1570 FILLER_28_97
*1571 FILLER_29_100
*1572 FILLER_29_113
*1573 FILLER_29_128
*1574 FILLER_29_136
*1575 FILLER_29_148
*1576 FILLER_29_15
*1577 FILLER_29_160
*1578 FILLER_29_190
*1579 FILLER_29_199
*1580 FILLER_29_210
*1581 FILLER_29_222
*1582 FILLER_29_225
*1583 FILLER_29_237
*1584 FILLER_29_249
*1585 FILLER_29_261
*1586 FILLER_29_265
*1587 FILLER_29_276
*1588 FILLER_29_281
*1589 FILLER_29_293
*1590 FILLER_29_3
*1591 FILLER_29_32
*1592 FILLER_29_52
*1593 FILLER_29_57
*1594 FILLER_29_69
*1595 FILLER_29_88
*1596 FILLER_2_101
*1597 FILLER_2_121
*1598 FILLER_2_133
*1599 FILLER_2_139
*1600 FILLER_2_141
*1601 FILLER_2_147
*1602 FILLER_2_151
*1603 FILLER_2_155
*1604 FILLER_2_166
*1605 FILLER_2_174
*1606 FILLER_2_178
*1607 FILLER_2_185
*1608 FILLER_2_192
*1609 FILLER_2_205
*1610 FILLER_2_234
*1611 FILLER_2_24
*1612 FILLER_2_241
*1613 FILLER_2_248
*1614 FILLER_2_256
*1615 FILLER_2_262
*1616 FILLER_2_267
*1617 FILLER_2_276
*1618 FILLER_2_284
*1619 FILLER_2_29
*1620 FILLER_2_293
*1621 FILLER_2_3
*1622 FILLER_2_41
*1623 FILLER_2_61
*1624 FILLER_2_7
*1625 FILLER_2_73
*1626 FILLER_2_81
*1627 FILLER_30_109
*1628 FILLER_30_121
*1629 FILLER_30_134
*1630 FILLER_30_162
*1631 FILLER_30_166
*1632 FILLER_30_172
*1633 FILLER_30_180
*1634 FILLER_30_187
*1635 FILLER_30_19
*1636 FILLER_30_195
*1637 FILLER_30_197
*1638 FILLER_30_205
*1639 FILLER_30_217
*1640 FILLER_30_232
*1641 FILLER_30_241
*1642 FILLER_30_249
*1643 FILLER_30_258
*1644 FILLER_30_27
*1645 FILLER_30_271
*1646 FILLER_30_277
*1647 FILLER_30_287
*1648 FILLER_30_29
*1649 FILLER_30_35
*1650 FILLER_30_52
*1651 FILLER_30_80
*1652 FILLER_30_85
*1653 FILLER_30_97
*1654 FILLER_31_100
*1655 FILLER_31_108
*1656 FILLER_31_120
*1657 FILLER_31_133
*1658 FILLER_31_140
*1659 FILLER_31_150
*1660 FILLER_31_163
*1661 FILLER_31_167
*1662 FILLER_31_169
*1663 FILLER_31_175
*1664 FILLER_31_184
*1665 FILLER_31_19
*1666 FILLER_31_193
*1667 FILLER_31_201
*1668 FILLER_31_207
*1669 FILLER_31_219
*1670 FILLER_31_223
*1671 FILLER_31_225
*1672 FILLER_31_233
*1673 FILLER_31_241
*1674 FILLER_31_249
*1675 FILLER_31_260
*1676 FILLER_31_269
*1677 FILLER_31_277
*1678 FILLER_31_281
*1679 FILLER_31_289
*1680 FILLER_31_295
*1681 FILLER_31_31
*1682 FILLER_31_35
*1683 FILLER_31_52
*1684 FILLER_31_57
*1685 FILLER_31_69
*1686 FILLER_31_88
*1687 FILLER_32_105
*1688 FILLER_32_111
*1689 FILLER_32_115
*1690 FILLER_32_125
*1691 FILLER_32_133
*1692 FILLER_32_139
*1693 FILLER_32_145
*1694 FILLER_32_154
*1695 FILLER_32_167
*1696 FILLER_32_19
*1697 FILLER_32_192
*1698 FILLER_32_197
*1699 FILLER_32_201
*1700 FILLER_32_207
*1701 FILLER_32_219
*1702 FILLER_32_231
*1703 FILLER_32_237
*1704 FILLER_32_244
*1705 FILLER_32_253
*1706 FILLER_32_261
*1707 FILLER_32_27
*1708 FILLER_32_270
*1709 FILLER_32_279
*1710 FILLER_32_287
*1711 FILLER_32_295
*1712 FILLER_32_45
*1713 FILLER_32_57
*1714 FILLER_32_69
*1715 FILLER_32_81
*1716 FILLER_32_85
*1717 FILLER_32_97
*1718 FILLER_33_101
*1719 FILLER_33_108
*1720 FILLER_33_122
*1721 FILLER_33_128
*1722 FILLER_33_133
*1723 FILLER_33_139
*1724 FILLER_33_143
*1725 FILLER_33_154
*1726 FILLER_33_161
*1727 FILLER_33_167
*1728 FILLER_33_169
*1729 FILLER_33_181
*1730 FILLER_33_193
*1731 FILLER_33_198
*1732 FILLER_33_22
*1733 FILLER_33_220
*1734 FILLER_33_225
*1735 FILLER_33_231
*1736 FILLER_33_244
*1737 FILLER_33_256
*1738 FILLER_33_268
*1739 FILLER_33_276
*1740 FILLER_33_287
*1741 FILLER_33_3
*1742 FILLER_33_31
*1743 FILLER_33_51
*1744 FILLER_33_55
*1745 FILLER_33_57
*1746 FILLER_33_78
*1747 FILLER_33_90
*1748 FILLER_34_105
*1749 FILLER_34_110
*1750 FILLER_34_121
*1751 FILLER_34_130
*1752 FILLER_34_138
*1753 FILLER_34_141
*1754 FILLER_34_145
*1755 FILLER_34_155
*1756 FILLER_34_168
*1757 FILLER_34_178
*1758 FILLER_34_182
*1759 FILLER_34_19
*1760 FILLER_34_191
*1761 FILLER_34_195
*1762 FILLER_34_197
*1763 FILLER_34_208
*1764 FILLER_34_219
*1765 FILLER_34_227
*1766 FILLER_34_244
*1767 FILLER_34_258
*1768 FILLER_34_267
*1769 FILLER_34_27
*1770 FILLER_34_279
*1771 FILLER_34_287
*1772 FILLER_34_32
*1773 FILLER_34_52
*1774 FILLER_34_80
*1775 FILLER_34_85
*1776 FILLER_34_97
*1777 FILLER_35_101
*1778 FILLER_35_109
*1779 FILLER_35_121
*1780 FILLER_35_129
*1781 FILLER_35_135
*1782 FILLER_35_147
*1783 FILLER_35_15
*1784 FILLER_35_158
*1785 FILLER_35_166
*1786 FILLER_35_169
*1787 FILLER_35_177
*1788 FILLER_35_182
*1789 FILLER_35_189
*1790 FILLER_35_197
*1791 FILLER_35_204
*1792 FILLER_35_218
*1793 FILLER_35_229
*1794 FILLER_35_23
*1795 FILLER_35_236
*1796 FILLER_35_243
*1797 FILLER_35_258
*1798 FILLER_35_268
*1799 FILLER_35_281
*1800 FILLER_35_289
*1801 FILLER_35_297
*1802 FILLER_35_3
*1803 FILLER_35_40
*1804 FILLER_35_47
*1805 FILLER_35_55
*1806 FILLER_35_57
*1807 FILLER_35_69
*1808 FILLER_35_89
*1809 FILLER_36_105
*1810 FILLER_36_111
*1811 FILLER_36_122
*1812 FILLER_36_132
*1813 FILLER_36_141
*1814 FILLER_36_149
*1815 FILLER_36_19
*1816 FILLER_36_192
*1817 FILLER_36_197
*1818 FILLER_36_213
*1819 FILLER_36_223