*SPEF "ieee 1481-1999"
*DESIGN "option22"
*DATE "11:11:11 Fri 11 11, 1111"
*VENDOR "OpenRCX"
*PROGRAM "Parallel Extraction"
*VERSION "1.0"
*DESIGN_FLOW "NAME_SCOPE LOCAL" "PIN_CAP NONE"
*DIVIDER /
*DELIMITER :
*BUS_DELIMITER []
*T_UNIT 1 NS
*C_UNIT 1 PF
*R_UNIT 1 OHM
*L_UNIT 1 HENRY

*NAME_MAP
*1 io_in[0]
*2 io_in[1]
*3 io_in[2]
*4 io_in[3]
*5 io_in[4]
*6 io_in[5]
*7 io_in[6]
*8 io_in[7]
*9 io_out[0]
*10 io_out[1]
*11 io_out[2]
*12 io_out[3]
*13 io_out[4]
*14 io_out[5]
*15 io_out[6]
*16 io_out[7]
*19 _000_
*20 _001_
*21 _002_
*22 _003_
*23 _004_
*24 _005_
*25 _006_
*26 _007_
*27 _008_
*28 _009_
*29 _010_
*30 _011_
*31 _012_
*32 _013_
*33 _014_
*34 _015_
*35 _016_
*36 _017_
*37 _018_
*38 _019_
*39 _020_
*40 _021_
*41 _022_
*42 _023_
*43 _024_
*44 _025_
*45 _026_
*46 _027_
*47 _028_
*48 _029_
*49 _030_
*50 _031_
*51 _032_
*52 _033_
*53 _034_
*54 _035_
*55 _036_
*56 _037_
*57 _038_
*58 _039_
*59 _040_
*60 _041_
*61 _042_
*62 _043_
*63 _044_
*64 _045_
*65 _046_
*66 _047_
*67 _048_
*68 _049_
*69 _050_
*70 _051_
*71 _052_
*72 _053_
*73 _054_
*74 _055_
*75 _056_
*76 _057_
*77 _058_
*78 _059_
*79 _060_
*80 _061_
*81 _062_
*82 _063_
*83 _064_
*84 _065_
*85 _066_
*86 _067_
*87 _068_
*88 _069_
*89 _070_
*90 _071_
*91 _072_
*92 _073_
*93 _074_
*94 _075_
*95 _076_
*96 _077_
*97 _078_
*98 _079_
*99 _080_
*100 _081_
*101 _082_
*102 _083_
*103 _084_
*104 _085_
*105 _086_
*106 _087_
*107 _088_
*108 _089_
*109 _090_
*110 _091_
*111 _092_
*112 _093_
*113 _094_
*114 _095_
*115 _096_
*116 _097_
*117 _098_
*118 _099_
*119 _100_
*120 _101_
*121 _102_
*122 _103_
*123 _104_
*124 _105_
*125 _106_
*126 _107_
*127 _108_
*128 _109_
*129 _110_
*130 _111_
*131 _112_
*132 _113_
*133 _114_
*134 _115_
*135 _116_
*136 _117_
*137 _118_
*138 _119_
*139 _120_
*140 _121_
*141 _122_
*142 _123_
*143 _124_
*144 _125_
*145 _126_
*146 _127_
*147 _128_
*148 _129_
*149 _130_
*150 _131_
*151 _132_
*152 _133_
*153 _134_
*154 _135_
*155 _136_
*156 _137_
*157 _138_
*158 _139_
*159 _140_
*160 _141_
*161 _142_
*162 _143_
*163 _144_
*164 _145_
*165 _146_
*166 _147_
*167 _148_
*168 _149_
*169 _150_
*170 _151_
*171 _152_
*172 _153_
*173 _154_
*174 _155_
*175 _156_
*176 _157_
*177 _158_
*178 _159_
*179 _160_
*180 _161_
*181 _162_
*182 _163_
*183 _164_
*184 _165_
*185 _166_
*186 _167_
*187 _168_
*188 _169_
*189 _170_
*190 _171_
*191 _172_
*192 _173_
*193 _174_
*194 _175_
*195 _176_
*196 _177_
*197 _178_
*198 _179_
*199 _180_
*200 _181_
*201 _182_
*202 _183_
*203 _184_
*204 _185_
*205 _186_
*206 _187_
*207 _188_
*208 _189_
*209 _190_
*210 _191_
*211 _192_
*212 _193_
*213 _194_
*214 _195_
*215 _196_
*216 _197_
*217 _198_
*218 _199_
*219 _200_
*220 _201_
*221 _202_
*222 _203_
*223 _204_
*224 _205_
*225 _206_
*226 _207_
*227 _208_
*228 _209_
*229 _210_
*230 _211_
*231 _212_
*232 _213_
*233 _214_
*234 _215_
*235 _216_
*236 _217_
*237 _218_
*238 _219_
*239 _220_
*240 _221_
*241 _222_
*242 _223_
*243 _224_
*244 _225_
*245 _226_
*246 _227_
*247 _228_
*248 _229_
*249 _230_
*250 _231_
*251 _232_
*252 _233_
*253 _234_
*254 _235_
*255 _236_
*256 _237_
*257 _238_
*258 _239_
*259 _240_
*260 _241_
*261 _242_
*262 _243_
*263 _244_
*264 _245_
*265 _246_
*266 _247_
*267 _248_
*268 _249_
*269 _250_
*270 _251_
*271 _252_
*272 _253_
*273 _254_
*274 _255_
*275 _256_
*276 _257_
*277 _258_
*278 _259_
*279 _260_
*280 _261_
*281 _262_
*282 _263_
*283 _264_
*284 _265_
*285 _266_
*286 _267_
*287 _268_
*288 _269_
*289 _270_
*290 _271_
*291 _272_
*292 _273_
*293 _274_
*294 _275_
*295 _276_
*296 _277_
*297 _278_
*298 _279_
*299 _280_
*300 _281_
*301 _282_
*302 _283_
*303 _284_
*304 _285_
*305 _286_
*306 _287_
*307 _288_
*308 _289_
*309 _290_
*310 _291_
*311 _292_
*312 _293_
*313 _294_
*314 _295_
*315 _296_
*316 _297_
*317 _298_
*318 _299_
*319 _300_
*320 _301_
*321 _302_
*322 _303_
*323 _304_
*324 _305_
*325 _306_
*326 _307_
*327 _308_
*328 _309_
*329 _310_
*330 _311_
*331 _312_
*332 _313_
*333 _314_
*334 _315_
*335 _316_
*336 _317_
*337 _318_
*338 _319_
*339 _320_
*340 _321_
*341 _322_
*342 _323_
*343 _324_
*344 _325_
*345 _326_
*346 _327_
*347 _328_
*348 _329_
*349 _330_
*350 _331_
*351 _332_
*352 _333_
*353 _334_
*354 _335_
*355 _336_
*356 _337_
*357 _338_
*358 _339_
*359 _340_
*360 _341_
*361 _342_
*362 _343_
*363 _344_
*364 _345_
*365 _346_
*366 _347_
*367 _348_
*368 _349_
*369 _350_
*370 _351_
*371 _352_
*372 _353_
*373 _354_
*374 _355_
*375 _356_
*376 _357_
*377 _358_
*378 _359_
*379 _360_
*380 _361_
*381 _362_
*382 _363_
*383 _364_
*384 _365_
*385 _366_
*386 _367_
*387 _368_
*388 _369_
*389 _370_
*390 _371_
*391 _372_
*392 _373_
*393 _374_
*394 _375_
*395 _376_
*396 _377_
*397 _378_
*398 _379_
*399 _380_
*400 _381_
*401 _382_
*402 _383_
*403 _384_
*404 _385_
*405 _386_
*406 _387_
*407 _388_
*408 _389_
*409 _390_
*410 _391_
*411 _392_
*412 _393_
*413 _394_
*414 _395_
*415 _396_
*416 _397_
*417 _398_
*418 _399_
*419 _400_
*420 _401_
*421 _402_
*422 _403_
*423 _404_
*424 _405_
*425 _406_
*426 buffer\[0\]
*427 buffer\[100\]
*428 buffer\[101\]
*429 buffer\[102\]
*430 buffer\[103\]
*431 buffer\[104\]
*432 buffer\[105\]
*433 buffer\[106\]
*434 buffer\[107\]
*435 buffer\[108\]
*436 buffer\[109\]
*437 buffer\[10\]
*438 buffer\[110\]
*439 buffer\[111\]
*440 buffer\[112\]
*441 buffer\[113\]
*442 buffer\[114\]
*443 buffer\[115\]
*444 buffer\[116\]
*445 buffer\[117\]
*446 buffer\[118\]
*447 buffer\[119\]
*448 buffer\[11\]
*449 buffer\[120\]
*450 buffer\[121\]
*451 buffer\[122\]
*452 buffer\[123\]
*453 buffer\[124\]
*454 buffer\[125\]
*455 buffer\[126\]
*456 buffer\[127\]
*457 buffer\[128\]
*458 buffer\[129\]
*459 buffer\[12\]
*460 buffer\[130\]
*461 buffer\[131\]
*462 buffer\[132\]
*463 buffer\[133\]
*464 buffer\[134\]
*465 buffer\[135\]
*466 buffer\[136\]
*467 buffer\[137\]
*468 buffer\[138\]
*469 buffer\[139\]
*470 buffer\[13\]
*471 buffer\[140\]
*472 buffer\[141\]
*473 buffer\[142\]
*474 buffer\[143\]
*475 buffer\[144\]
*476 buffer\[145\]
*477 buffer\[146\]
*478 buffer\[147\]
*479 buffer\[148\]
*480 buffer\[149\]
*481 buffer\[14\]
*482 buffer\[150\]
*483 buffer\[151\]
*484 buffer\[152\]
*485 buffer\[153\]
*486 buffer\[154\]
*487 buffer\[155\]
*488 buffer\[156\]
*489 buffer\[157\]
*490 buffer\[158\]
*491 buffer\[159\]
*492 buffer\[15\]
*493 buffer\[160\]
*494 buffer\[161\]
*495 buffer\[162\]
*496 buffer\[163\]
*497 buffer\[164\]
*498 buffer\[165\]
*499 buffer\[166\]
*500 buffer\[167\]
*501 buffer\[168\]
*502 buffer\[169\]
*503 buffer\[16\]
*504 buffer\[170\]
*505 buffer\[171\]
*506 buffer\[172\]
*507 buffer\[173\]
*508 buffer\[174\]
*509 buffer\[175\]
*510 buffer\[17\]
*511 buffer\[18\]
*512 buffer\[19\]
*513 buffer\[1\]
*514 buffer\[20\]
*515 buffer\[21\]
*516 buffer\[22\]
*517 buffer\[23\]
*518 buffer\[24\]
*519 buffer\[25\]
*520 buffer\[26\]
*521 buffer\[27\]
*522 buffer\[28\]
*523 buffer\[29\]
*524 buffer\[2\]
*525 buffer\[30\]
*526 buffer\[31\]
*527 buffer\[32\]
*528 buffer\[33\]
*529 buffer\[34\]
*530 buffer\[35\]
*531 buffer\[36\]
*532 buffer\[37\]
*533 buffer\[38\]
*534 buffer\[39\]
*535 buffer\[3\]
*536 buffer\[40\]
*537 buffer\[41\]
*538 buffer\[42\]
*539 buffer\[43\]
*540 buffer\[44\]
*541 buffer\[45\]
*542 buffer\[46\]
*543 buffer\[47\]
*544 buffer\[48\]
*545 buffer\[49\]
*546 buffer\[4\]
*547 buffer\[50\]
*548 buffer\[51\]
*549 buffer\[52\]
*550 buffer\[53\]
*551 buffer\[54\]
*552 buffer\[55\]
*553 buffer\[56\]
*554 buffer\[57\]
*555 buffer\[58\]
*556 buffer\[59\]
*557 buffer\[5\]
*558 buffer\[60\]
*559 buffer\[61\]
*560 buffer\[62\]
*561 buffer\[63\]
*562 buffer\[64\]
*563 buffer\[65\]
*564 buffer\[66\]
*565 buffer\[67\]
*566 buffer\[68\]
*567 buffer\[69\]
*568 buffer\[6\]
*569 buffer\[70\]
*570 buffer\[71\]
*571 buffer\[72\]
*572 buffer\[73\]
*573 buffer\[74\]
*574 buffer\[75\]
*575 buffer\[76\]
*576 buffer\[77\]
*577 buffer\[78\]
*578 buffer\[79\]
*579 buffer\[7\]
*580 buffer\[80\]
*581 buffer\[81\]
*582 buffer\[82\]
*583 buffer\[83\]
*584 buffer\[84\]
*585 buffer\[85\]
*586 buffer\[86\]
*587 buffer\[87\]
*588 buffer\[88\]
*589 buffer\[89\]
*590 buffer\[90\]
*591 buffer\[91\]
*592 buffer\[92\]
*593 buffer\[93\]
*594 buffer\[94\]
*595 buffer\[95\]
*596 buffer\[96\]
*597 buffer\[97\]
*598 buffer\[98\]
*599 buffer\[99\]
*600 buffer\[9\]
*601 clknet_0_io_in[0]
*602 clknet_4_0_0_io_in[0]
*603 clknet_4_10_0_io_in[0]
*604 clknet_4_11_0_io_in[0]
*605 clknet_4_12_0_io_in[0]
*606 clknet_4_13_0_io_in[0]
*607 clknet_4_14_0_io_in[0]
*608 clknet_4_15_0_io_in[0]
*609 clknet_4_1_0_io_in[0]
*610 clknet_4_2_0_io_in[0]
*611 clknet_4_3_0_io_in[0]
*612 clknet_4_4_0_io_in[0]
*613 clknet_4_5_0_io_in[0]
*614 clknet_4_6_0_io_in[0]
*615 clknet_4_7_0_io_in[0]
*616 clknet_4_8_0_io_in[0]
*617 clknet_4_9_0_io_in[0]
*618 count\[0\]
*619 count\[1\]
*620 count\[2\]
*621 net1
*622 net2
*623 net3
*624 ANTENNA_0
*625 ANTENNA_1
*626 ANTENNA_10
*627 ANTENNA_11
*628 ANTENNA_12
*629 ANTENNA_13
*630 ANTENNA_14
*631 ANTENNA_15
*632 ANTENNA_16
*633 ANTENNA_17
*634 ANTENNA_18
*635 ANTENNA_19
*636 ANTENNA_2
*637 ANTENNA_20
*638 ANTENNA_21
*639 ANTENNA_22
*640 ANTENNA_23
*641 ANTENNA_24
*642 ANTENNA_25
*643 ANTENNA_26
*644 ANTENNA_27
*645 ANTENNA_28
*646 ANTENNA_29
*647 ANTENNA_3
*648 ANTENNA_30
*649 ANTENNA_31
*650 ANTENNA_32
*651 ANTENNA_33
*652 ANTENNA_34
*653 ANTENNA_35
*654 ANTENNA_36
*655 ANTENNA_37
*656 ANTENNA_38
*657 ANTENNA_39
*658 ANTENNA_4
*659 ANTENNA_40
*660 ANTENNA_41
*661 ANTENNA_42
*662 ANTENNA_43
*663 ANTENNA_44
*664 ANTENNA_45
*665 ANTENNA_46
*666 ANTENNA_5
*667 ANTENNA_6
*668 ANTENNA_7
*669 ANTENNA_8
*670 ANTENNA_9
*671 FILLER_0_108
*672 FILLER_0_113
*673 FILLER_0_118
*674 FILLER_0_122
*675 FILLER_0_13
*676 FILLER_0_133
*677 FILLER_0_139
*678 FILLER_0_141
*679 FILLER_0_162
*680 FILLER_0_169
*681 FILLER_0_182
*682 FILLER_0_189
*683 FILLER_0_195
*684 FILLER_0_200
*685 FILLER_0_204
*686 FILLER_0_211
*687 FILLER_0_218
*688 FILLER_0_225
*689 FILLER_0_237
*690 FILLER_0_24
*691 FILLER_0_249
*692 FILLER_0_253
*693 FILLER_0_265
*694 FILLER_0_277
*695 FILLER_0_281
*696 FILLER_0_289
*697 FILLER_0_294
*698 FILLER_0_298
*699 FILLER_0_3
*700 FILLER_0_38
*701 FILLER_0_46
*702 FILLER_0_51
*703 FILLER_0_55
*704 FILLER_0_57
*705 FILLER_0_63
*706 FILLER_0_80
*707 FILLER_0_9
*708 FILLER_0_95
*709 FILLER_10_108
*710 FILLER_10_112
*711 FILLER_10_130
*712 FILLER_10_138
*713 FILLER_10_141
*714 FILLER_10_153
*715 FILLER_10_165
*716 FILLER_10_169
*717 FILLER_10_179
*718 FILLER_10_191
*719 FILLER_10_195
*720 FILLER_10_206
*721 FILLER_10_219
*722 FILLER_10_231
*723 FILLER_10_24
*724 FILLER_10_243
*725 FILLER_10_251
*726 FILLER_10_262
*727 FILLER_10_274
*728 FILLER_10_286
*729 FILLER_10_29
*730 FILLER_10_290
*731 FILLER_10_295
*732 FILLER_10_3
*733 FILLER_10_41
*734 FILLER_10_45
*735 FILLER_10_49
*736 FILLER_10_69
*737 FILLER_10_7
*738 FILLER_10_81
*739 FILLER_10_85
*740 FILLER_10_91
*741 FILLER_11_105
*742 FILLER_11_111
*743 FILLER_11_122
*744 FILLER_11_142
*745 FILLER_11_164
*746 FILLER_11_169
*747 FILLER_11_179
*748 FILLER_11_18
*749 FILLER_11_192
*750 FILLER_11_205
*751 FILLER_11_218
*752 FILLER_11_234
*753 FILLER_11_246
*754 FILLER_11_258
*755 FILLER_11_270
*756 FILLER_11_278
*757 FILLER_11_290
*758 FILLER_11_298
*759 FILLER_11_36
*760 FILLER_11_51
*761 FILLER_11_55
*762 FILLER_11_57
*763 FILLER_11_6
*764 FILLER_11_62
*765 FILLER_11_82
*766 FILLER_11_89
*767 FILLER_11_93
*768 FILLER_12_104
*769 FILLER_12_116
*770 FILLER_12_128
*771 FILLER_12_157
*772 FILLER_12_163
*773 FILLER_12_167
*774 FILLER_12_180
*775 FILLER_12_188
*776 FILLER_12_192
*777 FILLER_12_20
*778 FILLER_12_200
*779 FILLER_12_207
*780 FILLER_12_213
*781 FILLER_12_223
*782 FILLER_12_235
*783 FILLER_12_247
*784 FILLER_12_251
*785 FILLER_12_253
*786 FILLER_12_265
*787 FILLER_12_277
*788 FILLER_12_289
*789 FILLER_12_29
*790 FILLER_12_297
*791 FILLER_12_3
*792 FILLER_12_51
*793 FILLER_12_59
*794 FILLER_12_76
*795 FILLER_12_8
*796 FILLER_12_85
*797 FILLER_12_97
*798 FILLER_13_108
*799 FILLER_13_113
*800 FILLER_13_124
*801 FILLER_13_128
*802 FILLER_13_147
*803 FILLER_13_159
*804 FILLER_13_167
*805 FILLER_13_178
*806 FILLER_13_186
*807 FILLER_13_19
*808 FILLER_13_190
*809 FILLER_13_203
*810 FILLER_13_210
*811 FILLER_13_217
*812 FILLER_13_223
*813 FILLER_13_225
*814 FILLER_13_23
*815 FILLER_13_237
*816 FILLER_13_249
*817 FILLER_13_261
*818 FILLER_13_273
*819 FILLER_13_279
*820 FILLER_13_281
*821 FILLER_13_293
*822 FILLER_13_35
*823 FILLER_13_52
*824 FILLER_13_57
*825 FILLER_13_79
*826 FILLER_13_88
*827 FILLER_14_106
*828 FILLER_14_118
*829 FILLER_14_130
*830 FILLER_14_138
*831 FILLER_14_150
*832 FILLER_14_156
*833 FILLER_14_167
*834 FILLER_14_179
*835 FILLER_14_189
*836 FILLER_14_195
*837 FILLER_14_197
*838 FILLER_14_209
*839 FILLER_14_220
*840 FILLER_14_232
*841 FILLER_14_24
*842 FILLER_14_244
*843 FILLER_14_253
*844 FILLER_14_261
*845 FILLER_14_266
*846 FILLER_14_277
*847 FILLER_14_285
*848 FILLER_14_29
*849 FILLER_14_291
*850 FILLER_14_3
*851 FILLER_14_41
*852 FILLER_14_58
*853 FILLER_14_7
*854 FILLER_14_80
*855 FILLER_14_94
*856 FILLER_15_108
*857 FILLER_15_122
*858 FILLER_15_128
*859 FILLER_15_145
*860 FILLER_15_157
*861 FILLER_15_165
*862 FILLER_15_172
*863 FILLER_15_180
*864 FILLER_15_184
*865 FILLER_15_192
*866 FILLER_15_204
*867 FILLER_15_216
*868 FILLER_15_225
*869 FILLER_15_237
*870 FILLER_15_249
*871 FILLER_15_261
*872 FILLER_15_273
*873 FILLER_15_279
*874 FILLER_15_281
*875 FILLER_15_293
*876 FILLER_15_3
*877 FILLER_15_31
*878 FILLER_15_51
*879 FILLER_15_55
*880 FILLER_15_73
*881 FILLER_15_80
*882 FILLER_16_104
*883 FILLER_16_112
*884 FILLER_16_129
*885 FILLER_16_137
*886 FILLER_16_157
*887 FILLER_16_174
*888 FILLER_16_182
*889 FILLER_16_19
*890 FILLER_16_192
*891 FILLER_16_206
*892 FILLER_16_214
*893 FILLER_16_225
*894 FILLER_16_232
*895 FILLER_16_244
*896 FILLER_16_253
*897 FILLER_16_265
*898 FILLER_16_27
*899 FILLER_16_276
*900 FILLER_16_288
*901 FILLER_16_296
*902 FILLER_16_38
*903 FILLER_16_45
*904 FILLER_16_53
*905 FILLER_16_70
*906 FILLER_16_82
*907 FILLER_16_85
*908 FILLER_16_92
*909 FILLER_17_108
*910 FILLER_17_113
*911 FILLER_17_125
*912 FILLER_17_137
*913 FILLER_17_149
*914 FILLER_17_15
*915 FILLER_17_153
*916 FILLER_17_165
*917 FILLER_17_178
*918 FILLER_17_190
*919 FILLER_17_201
*920 FILLER_17_209
*921 FILLER_17_219
*922 FILLER_17_223
*923 FILLER_17_228
*924 FILLER_17_240
*925 FILLER_17_252
*926 FILLER_17_269
*927 FILLER_17_27
*928 FILLER_17_276
*929 FILLER_17_281
*930 FILLER_17_293
*931 FILLER_17_3
*932 FILLER_17_33
*933 FILLER_17_51
*934 FILLER_17_55
*935 FILLER_17_60
*936 FILLER_17_88
*937 FILLER_18_104
*938 FILLER_18_109
*939 FILLER_18_127
*940 FILLER_18_139
*941 FILLER_18_150
*942 FILLER_18_162
*943 FILLER_18_168
*944 FILLER_18_172
*945 FILLER_18_176
*946 FILLER_18_180
*947 FILLER_18_19
*948 FILLER_18_192
*949 FILLER_18_197
*950 FILLER_18_205
*951 FILLER_18_209
*952 FILLER_18_213
*953 FILLER_18_223
*954 FILLER_18_231
*955 FILLER_18_243
*956 FILLER_18_251
*957 FILLER_18_262
*958 FILLER_18_27
*959 FILLER_18_274
*960 FILLER_18_286
*961 FILLER_18_298
*962 FILLER_18_32
*963 FILLER_18_38
*964 FILLER_18_55
*965 FILLER_18_75
*966 FILLER_18_83
*967 FILLER_18_85
*968 FILLER_18_89
*969 FILLER_18_93
*970 FILLER_18_97
*971 FILLER_19_107
*972 FILLER_19_11
*973 FILLER_19_111
*974 FILLER_19_113
*975 FILLER_19_125
*976 FILLER_19_129
*977 FILLER_19_141
*978 FILLER_19_149
*979 FILLER_19_156
*980 FILLER_19_172
*981 FILLER_19_185
*982 FILLER_19_192
*983 FILLER_19_200
*984 FILLER_19_211
*985 FILLER_19_218
*986 FILLER_19_228
*987 FILLER_19_240
*988 FILLER_19_252
*989 FILLER_19_264
*990 FILLER_19_276
*991 FILLER_19_28
*992 FILLER_19_281
*993 FILLER_19_295
*994 FILLER_19_3
*995 FILLER_19_48
*996 FILLER_19_60
*997 FILLER_19_72
*998 FILLER_19_90
*999 FILLER_1_108
*1000 FILLER_1_123
*1001 FILLER_1_129
*1002 FILLER_1_146
*1003 FILLER_1_15
*1004 FILLER_1_154
*1005 FILLER_1_164
*1006 FILLER_1_169
*1007 FILLER_1_180
*1008 FILLER_1_193
*1009 FILLER_1_200
*1010 FILLER_1_215
*1011 FILLER_1_223
*1012 FILLER_1_225
*1013 FILLER_1_23
*1014 FILLER_1_231
*1015 FILLER_1_245
*1016 FILLER_1_251
*1017 FILLER_1_262
*1018 FILLER_1_274
*1019 FILLER_1_281
*1020 FILLER_1_295
*1021 FILLER_1_3
*1022 FILLER_1_34
*1023 FILLER_1_44
*1024 FILLER_1_48
*1025 FILLER_1_52
*1026 FILLER_1_60
*1027 FILLER_1_64
*1028 FILLER_1_74
*1029 FILLER_1_94
*1030 FILLER_20_102
*1031 FILLER_20_113
*1032 FILLER_20_119
*1033 FILLER_20_136
*1034 FILLER_20_141
*1035 FILLER_20_149
*1036 FILLER_20_166
*1037 FILLER_20_179
*1038 FILLER_20_19
*1039 FILLER_20_191
*1040 FILLER_20_195
*1041 FILLER_20_200
*1042 FILLER_20_212
*1043 FILLER_20_224
*1044 FILLER_20_236
*1045 FILLER_20_248
*1046 FILLER_20_253
*1047 FILLER_20_265
*1048 FILLER_20_27
*1049 FILLER_20_277
*1050 FILLER_20_289
*1051 FILLER_20_29
*1052 FILLER_20_297
*1053 FILLER_20_44
*1054 FILLER_20_54
*1055 FILLER_20_61
*1056 FILLER_20_80
*1057 FILLER_20_94
*1058 FILLER_21_103
*1059 FILLER_21_111
*1060 FILLER_21_122
*1061 FILLER_21_134
*1062 FILLER_21_146
*1063 FILLER_21_158
*1064 FILLER_21_166
*1065 FILLER_21_169
*1066 FILLER_21_181
*1067 FILLER_21_188
*1068 FILLER_21_19
*1069 FILLER_21_195
*1070 FILLER_21_208
*1071 FILLER_21_218
*1072 FILLER_21_225
*1073 FILLER_21_23
*1074 FILLER_21_247
*1075 FILLER_21_259
*1076 FILLER_21_271
*1077 FILLER_21_279
*1078 FILLER_21_281
*1079 FILLER_21_293
*1080 FILLER_21_41
*1081 FILLER_21_53
*1082 FILLER_21_57
*1083 FILLER_21_65
*1084 FILLER_21_83
*1085 FILLER_22_116
*1086 FILLER_22_136
*1087 FILLER_22_141
*1088 FILLER_22_153
*1089 FILLER_22_165
*1090 FILLER_22_169
*1091 FILLER_22_179
*1092 FILLER_22_191
*1093 FILLER_22_195
*1094 FILLER_22_197
*1095 FILLER_22_20
*1096 FILLER_22_209
*1097 FILLER_22_219
*1098 FILLER_22_232
*1099 FILLER_22_244
*1100 FILLER_22_253
*1101 FILLER_22_265
*1102 FILLER_22_277
*1103 FILLER_22_289
*1104 FILLER_22_29
*1105 FILLER_22_297
*1106 FILLER_22_3
*1107 FILLER_22_41
*1108 FILLER_22_58
*1109 FILLER_22_80
*1110 FILLER_22_96
*1111 FILLER_23_103
*1112 FILLER_23_11
*1113 FILLER_23_111
*1114 FILLER_23_113
*1115 FILLER_23_125
*1116 FILLER_23_142
*1117 FILLER_23_148
*1118 FILLER_23_158
*1119 FILLER_23_166
*1120 FILLER_23_178
*1121 FILLER_23_190
*1122 FILLER_23_202
*1123 FILLER_23_214
*1124 FILLER_23_222
*1125 FILLER_23_225
*1126 FILLER_23_237
*1127 FILLER_23_245
*1128 FILLER_23_250
*1129 FILLER_23_262
*1130 FILLER_23_268
*1131 FILLER_23_272
*1132 FILLER_23_281
*1133 FILLER_23_29
*1134 FILLER_23_293
*1135 FILLER_23_3
*1136 FILLER_23_41
*1137 FILLER_23_53
*1138 FILLER_23_57
*1139 FILLER_23_65
*1140 FILLER_23_75
*1141 FILLER_24_106
*1142 FILLER_24_118
*1143 FILLER_24_122
*1144 FILLER_24_134
*1145 FILLER_24_141
*1146 FILLER_24_153
*1147 FILLER_24_171
*1148 FILLER_24_175
*1149 FILLER_24_185
*1150 FILLER_24_19
*1151 FILLER_24_193
*1152 FILLER_24_197
*1153 FILLER_24_205
*1154 FILLER_24_217
*1155 FILLER_24_229
*1156 FILLER_24_241
*1157 FILLER_24_249
*1158 FILLER_24_253
*1159 FILLER_24_265
*1160 FILLER_24_27
*1161 FILLER_24_277
*1162 FILLER_24_289
*1163 FILLER_24_29
*1164 FILLER_24_297
*1165 FILLER_24_41
*1166 FILLER_24_53
*1167 FILLER_24_65
*1168 FILLER_24_77
*1169 FILLER_24_83
*1170 FILLER_24_85
*1171 FILLER_24_97
*1172 FILLER_25_108
*1173 FILLER_25_122
*1174 FILLER_25_131
*1175 FILLER_25_143
*1176 FILLER_25_155
*1177 FILLER_25_167
*1178 FILLER_25_172
*1179 FILLER_25_184
*1180 FILLER_25_19
*1181 FILLER_25_196
*1182 FILLER_25_208
*1183 FILLER_25_220
*1184 FILLER_25_225
*1185 FILLER_25_237
*1186 FILLER_25_249
*1187 FILLER_25_257
*1188 FILLER_25_26
*1189 FILLER_25_267
*1190 FILLER_25_279
*1191 FILLER_25_281
*1192 FILLER_25_293
*1193 FILLER_25_32
*1194 FILLER_25_49
*1195 FILLER_25_55
*1196 FILLER_25_57
*1197 FILLER_25_65
*1198 FILLER_25_70
*1199 FILLER_25_88
*1200 FILLER_26_109
*1201 FILLER_26_129
*1202 FILLER_26_137
*1203 FILLER_26_141
*1204 FILLER_26_147
*1205 FILLER_26_164
*1206 FILLER_26_179
*1207 FILLER_26_191
*1208 FILLER_26_195
*1209 FILLER_26_197
*1210 FILLER_26_201
*1211 FILLER_26_213
*1212 FILLER_26_222
*1213 FILLER_26_228
*1214 FILLER_26_238
*1215 FILLER_26_24
*1216 FILLER_26_250
*1217 FILLER_26_253
*1218 FILLER_26_265
*1219 FILLER_26_277
*1220 FILLER_26_289
*1221 FILLER_26_29
*1222 FILLER_26_297
*1223 FILLER_26_3
*1224 FILLER_26_34
*1225 FILLER_26_54
*1226 FILLER_26_7
*1227 FILLER_26_74
*1228 FILLER_26_82
*1229 FILLER_26_85
*1230 FILLER_27_108
*1231 FILLER_27_129
*1232 FILLER_27_133
*1233 FILLER_27_145
*1234 FILLER_27_15
*1235 FILLER_27_157
*1236 FILLER_27_165
*1237 FILLER_27_169
*1238 FILLER_27_177
*1239 FILLER_27_189
*1240 FILLER_27_201
*1241 FILLER_27_213
*1242 FILLER_27_221
*1243 FILLER_27_225
*1244 FILLER_27_23
*1245 FILLER_27_241
*1246 FILLER_27_253
*1247 FILLER_27_259
*1248 FILLER_27_264
*1249 FILLER_27_276
*1250 FILLER_27_281
*1251 FILLER_27_293
*1252 FILLER_27_3
*1253 FILLER_27_41
*1254 FILLER_27_52
*1255 FILLER_27_66
*1256 FILLER_27_88
*1257 FILLER_28_117
*1258 FILLER_28_129
*1259 FILLER_28_137
*1260 FILLER_28_157
*1261 FILLER_28_163
*1262 FILLER_28_169
*1263 FILLER_28_182
*1264 FILLER_28_194
*1265 FILLER_28_197
*1266 FILLER_28_20
*1267 FILLER_28_209
*1268 FILLER_28_221
*1269 FILLER_28_233
*1270 FILLER_28_245
*1271 FILLER_28_251
*1272 FILLER_28_253
*1273 FILLER_28_265
*1274 FILLER_28_275
*1275 FILLER_28_283
*1276 FILLER_28_29
*1277 FILLER_28_295
*1278 FILLER_28_3
*1279 FILLER_28_33
*1280 FILLER_28_53
*1281 FILLER_28_61
*1282 FILLER_28_65
*1283 FILLER_28_77
*1284 FILLER_28_8
*1285 FILLER_28_83
*1286 FILLER_28_85
*1287 FILLER_28_97
*1288 FILLER_29_100
*1289 FILLER_29_113
*1290 FILLER_29_118
*1291 FILLER_29_136
*1292 FILLER_29_158
*1293 FILLER_29_166
*1294 FILLER_29_172
*1295 FILLER_29_184
*1296 FILLER_29_196
*1297 FILLER_29_208
*1298 FILLER_29_21
*1299 FILLER_29_220
*1300 FILLER_29_225
*1301 FILLER_29_237
*1302 FILLER_29_249
*1303 FILLER_29_261
*1304 FILLER_29_273
*1305 FILLER_29_279
*1306 FILLER_29_281
*1307 FILLER_29_293
*1308 FILLER_29_3
*1309 FILLER_29_38
*1310 FILLER_29_46
*1311 FILLER_29_52
*1312 FILLER_29_57
*1313 FILLER_29_68
*1314 FILLER_29_88
*1315 FILLER_2_108
*1316 FILLER_2_112
*1317 FILLER_2_130
*1318 FILLER_2_138
*1319 FILLER_2_141
*1320 FILLER_2_156
*1321 FILLER_2_164
*1322 FILLER_2_175
*1323 FILLER_2_182
*1324 FILLER_2_189
*1325 FILLER_2_195
*1326 FILLER_2_197
*1327 FILLER_2_203
*1328 FILLER_2_207
*1329 FILLER_2_215
*1330 FILLER_2_221
*1331 FILLER_2_225
*1332 FILLER_2_237
*1333 FILLER_2_24
*1334 FILLER_2_249
*1335 FILLER_2_253
*1336 FILLER_2_265
*1337 FILLER_2_277
*1338 FILLER_2_289
*1339 FILLER_2_29
*1340 FILLER_2_294
*1341 FILLER_2_298
*1342 FILLER_2_3
*1343 FILLER_2_33
*1344 FILLER_2_40
*1345 FILLER_2_60
*1346 FILLER_2_7
*1347 FILLER_2_80
*1348 FILLER_2_85
*1349 FILLER_2_90
*1350 FILLER_30_118
*1351 FILLER_30_130
*1352 FILLER_30_138
*1353 FILLER_30_141
*1354 FILLER_30_153
*1355 FILLER_30_165
*1356 FILLER_30_177
*1357 FILLER_30_188
*1358 FILLER_30_19
*1359 FILLER_30_197
*1360 FILLER_30_208
*1361 FILLER_30_220
*1362 FILLER_30_228
*1363 FILLER_30_23
*1364 FILLER_30_232
*1365 FILLER_30_244
*1366 FILLER_30_253
*1367 FILLER_30_265
*1368 FILLER_30_27
*1369 FILLER_30_277
*1370 FILLER_30_289
*1371 FILLER_30_29
*1372 FILLER_30_295
*1373 FILLER_30_38
*1374 FILLER_30_56
*1375 FILLER_30_60
*1376 FILLER_30_78
*1377 FILLER_30_85
*1378 FILLER_30_98
*1379 FILLER_31_11
*1380 FILLER_31_110
*1381 FILLER_31_113
*1382 FILLER_31_136
*1383 FILLER_31_143
*1384 FILLER_31_153
*1385 FILLER_31_164
*1386 FILLER_31_169
*1387 FILLER_31_181
*1388 FILLER_31_193
*1389 FILLER_31_205
*1390 FILLER_31_209
*1391 FILLER_31_219
*1392 FILLER_31_223
*1393 FILLER_31_225
*1394 FILLER_31_237
*1395 FILLER_31_249
*1396 FILLER_31_261
*1397 FILLER_31_273
*1398 FILLER_31_279
*1399 FILLER_31_281
*1400 FILLER_31_289
*1401 FILLER_31_297
*1402 FILLER_31_3
*1403 FILLER_31_30
*1404 FILLER_31_50
*1405 FILLER_31_57
*1406 FILLER_31_74
*1407 FILLER_31_98
*1408 FILLER_32_106
*1409 FILLER_32_118
*1410 FILLER_32_135
*1411 FILLER_32_139
*1412 FILLER_32_150
*1413 FILLER_32_162
*1414 FILLER_32_173
*1415 FILLER_32_185
*1416 FILLER_32_19
*1417 FILLER_32_193
*1418 FILLER_32_197
*1419 FILLER_32_207
*1420 FILLER_32_219
*1421 FILLER_32_23
*1422 FILLER_32_235
*1423 FILLER_32_248
*1424 FILLER_32_253
*1425 FILLER_32_265
*1426 FILLER_32_27
*1427 FILLER_32_277
*1428 FILLER_32_290
*1429 FILLER_32_298
*1430 FILLER_32_45
*1431 FILLER_32_49
*1432 FILLER_32_59
*1433 FILLER_32_79
*1434 FILLER_32_83
*1435 FILLER_32_85
*1436 FILLER_32_89
*1437 FILLER_33_11
*1438 FILLER_33_111
*1439 FILLER_33_113
*1440 FILLER_33_121
*1441 FILLER_33_132
*1442 FILLER_33_157
*1443 FILLER_33_16
*1444 FILLER_33_165
*1445 FILLER_33_169
*1446 FILLER_33_181
*1447 FILLER_33_193
*1448 FILLER_33_205
*1449 FILLER_33_217
*1450 FILLER_33_223
*1451 FILLER_33_229
*1452 FILLER_33_237
*1453 FILLER_33_249
*1454 FILLER_33_261
*1455 FILLER_33_273
*1456 FILLER_33_279
*1457 FILLER_33_281
*1458 FILLER_33_293
*1459 FILLER_33_3
*1460 FILLER_33_35
*1461 FILLER_33_42
*1462 FILLER_33_54
*1463 FILLER_33_57
*1464 FILLER_33_69
*1465 FILLER_33_87
*1466 FILLER_33_99
*1467 FILLER_34_125
*1468 FILLER_34_137
*1469 FILLER_34_141
*1470 FILLER_34_153
*1471 FILLER_34_157
*1472 FILLER_34_161
*1473 FILLER_34_173
*1474 FILLER_34_188
*1475 FILLER_34_19
*1476 FILLER_34_204
*1477 FILLER_34_219
*1478 FILLER_34_231
*1479 FILLER_34_243
*1480 FILLER_34_251
*1481 FILLER_34_253
*1482 FILLER_34_265
*1483 FILLER_34_27
*1484 FILLER_34_277
*1485 FILLER_34_29
*1486 FILLER_34_295
*1487 FILLER_34_41
*1488 FILLER_34_60
*1489 FILLER_34_72
*1490 FILLER_34_85
*1491 FILLER_34_97
*1492 FILLER_35_108
*1493 FILLER_35_11
*1494 FILLER_35_113
*1495 FILLER_35_124
*1496 FILLER_35_146
*1497 FILLER_35_158
*1498 FILLER_35_166
*1499 FILLER_35_169
*1500 FILLER_35_175
*1501 FILLER_35_187
*1502 FILLER_35_199
*1503 FILLER_35_211
*1504 FILLER_35_223
*1505 FILLER_35_225
*1506 FILLER_35_235
*1507 FILLER_35_247
*1508 FILLER_35_259
*1509 FILLER_35_271
*1510 FILLER_35_279
*1511 FILLER_35_281
*1512 FILLER_35_295
*1513 FILLER_35_3
*1514 FILLER_35_31
*1515 FILLER_35_35
*1516 FILLER_35_52
*1517 FILLER_35_57
*1518 FILLER_35_63
*1519 FILLER_35_68
*1520 FILLER_35_7
*1521 FILLER_35_88
*1522 FILLER_36_101
*1523 FILLER_36_113
*1524 FILLER_36_119
*1525 FILLER_36_136
*1526 FILLER_36_157
*1527 FILLER_36_161
*1528 FILLER_36_173
*1529 FILLER_36_181
*1530 FILLER_36_19
*1531 FILLER_36_192
*1532 FILLER_36_197
*1533 FILLER_36_209
*1534 FILLER_36_221
*1535 FILLER_36_233
*1536 FILLER_36_245
*1537 FILLER_36_251
*1538 FILLER_36_253
*1539 FILLER_36_265
*1540 FILLER_36_27
*1541 FILLER_36_277
*1542 FILLER_36_289
*1543 FILLER_36_29
*1544 FILLER_36_297
*1545 FILLER_36_48
*1546 FILLER_36_70
*1547 FILLER_36_82
*1548 FILLER_37_101
*1549 FILLER_37_109
*1550 FILLER_37_113
*1551 FILLER_37_125
*1552 FILLER_37_137
*1553 FILLER_37_15
*1554 FILLER_37_162
*1555 FILLER_37_169
*1556 FILLER_37_181
*1557 FILLER_37_189
*1558 FILLER_37_192
*1559 FILLER_37_199
*1560 FILLER_37_212
*1561 FILLER_37_225
*1562 FILLER_37_237
*1563 FILLER_37_249
*1564 FILLER_37_255
*1565 FILLER_37_260
*1566 FILLER_37_272
*1567 FILLER_37_281
*1568 FILLER_37_293
*1569 FILLER_37_3
*1570 FILLER_37_32
*1571 FILLER_37_52
*1572 FILLER_37_57
*1573 FILLER_37_61
*1574 FILLER_37_78
*1575 FILLER_37_82
*1576 FILLER_37_90
*1577 FILLER_38_111
*1578 FILLER_38_128
*1579 FILLER_38_141
*1580 FILLER_38_15
*1581 FILLER_38_153
*1582 FILLER_38_157
*1583 FILLER_38_167
*1584 FILLER_38_179
*1585 FILLER_38_191
*1586 FILLER_38_195
*1587 FILLER_38_197
*1588 FILLER_38_209
*1589 FILLER_38_221
*1590 FILLER_38_233
*1591 FILLER_38_245
*1592 FILLER_38_251
*1593 FILLER_38_253
*1594 FILLER_38_265
*1595 FILLER_38_27
*1596 FILLER_38_277
*1597 FILLER_38_289
*1598 FILLER_38_29
*1599 FILLER_38_297
*1600 FILLER_38_3
*1601 FILLER_38_41
*1602 FILLER_38_49
*1603 FILLER_38_66
*1604 FILLER_38_78
*1605 FILLER_38_85
*1606 FILLER_38_93
*1607 FILLER_39_108
*1608 FILLER_39_129
*1609 FILLER_39_141
*1610 FILLER_39_153
*1611 FILLER_39_165
*1612 FILLER_39_169
*1613 FILLER_39_17
*1614 FILLER_39_181
*1615 FILLER_39_185
*1616 FILLER_39_197
*1617 FILLER_39_21
*1618 FILLER_39_214
*1619 FILLER_39_222
*1620 FILLER_39_228
*1621 FILLER_39_240
*1622 FILLER_39_252
*1623 FILLER_39_264
*1624 FILLER_39_276
*1625 FILLER_39_281
*1626 FILLER_39_293
*1627 FILLER_39_3
*1628 FILLER_39_38
*1629 FILLER_39_50
*1630 FILLER_39_60
*1631 FILLER_39_7
*1632 FILLER_39_84
*1633 FILLER_3_101
*1634 FILLER_3_106
*1635 FILLER_3_113
*1636 FILLER_3_125
*1637 FILLER_3_13
*1638 FILLER_3_137
*1639 FILLER_3_142
*1640 FILLER_3_160
*1641 FILLER_3_169
*1642 FILLER_3_175
*1643 FILLER_3_185
*1644 FILLER_3_20
*1645 FILLER_3_201
*1646 FILLER_3_213
*1647 FILLER_3_221
*1648 FILLER_3_225
*1649 FILLER_3_237
*1650 FILLER_3_248
*1651 FILLER_3_260
*1652 FILLER_3_272
*1653 FILLER_3_28
*1654 FILLER_3_281
*1655 FILLER_3_289
*1656 FILLER_3_295
*1657 FILLER_3_3
*1658 FILLER_3_45
*1659 FILLER_3_52
*1660 FILLER_3_57
*1661 FILLER_3_81
*1662 FILLER_3_87
*1663 FILLER_3_97
*1664 FILLER_40_103
*1665 FILLER_40_115
*1666 FILLER_40_130
*1667 FILLER_40_138
*1668 FILLER_40_164
*1669 FILLER_40_176
*1670 FILLER_40_188
*1671 FILLER_40_19
*1672 FILLER_40_197
*1673 FILLER_40_209
*1674 FILLER_40_221
*1675 FILLER_40_234
*1676 FILLER_40_246
*1677 FILLER_40_253
*1678 FILLER_40_261
*1679 FILLER_40_265
*1680 FILLER_40_27
*1681 FILLER_40_277
*1682 FILLER_40_289
*1683 FILLER_40_29
*1684 FILLER_40_297
*1685 FILLER_40_48
*1686 FILLER_40_61
*1687 FILLER_40_72
*1688 FILLER_40_85
*1689 FILLER_40_91
*1690 FILLER_41_107
*1691 FILLER_41_111
*1692 FILLER_41_129
*1693 FILLER_41_141
*1694 FILLER_41_153
*1695 FILLER_41_165
*1696 FILLER_41_169
*1697 FILLER_41_175
*1698 FILLER_41_187
*1699 FILLER_41_19
*1700 FILLER_41_199
*1701 FILLER_41_211
*1702 FILLER_41_223
*1703 FILLER_41_225
*1704 FILLER_41_237
*1705 FILLER_41_249
*1706 FILLER_41_261
*1707 FILLER_41_265
*1708 FILLER_41_276
*1709 FILLER_41_281
*1710 FILLER_41_293
*1711 FILLER_41_42
*1712 FILLER_41_54
*1713 FILLER_41_66
*1714 FILLER_41_78
*1715 FILLER_41_90
*1716 FILLER_42_101
*1717 FILLER_42_113
*1718 FILLER_42_130
*1719 FILLER_42_138
*1720 FILLER_42_141
*1721 FILLER_42_153
*1722 FILLER_42_165
*1723 FILLER_42_177
*1724 FILLER_42_189
*1725 FILLER_42_19
*1726 FILLER_42_195
*1727 FILLER_42_197
*1728 FILLER_42_209
*1729 FILLER_42_221
*1730 FILLER_42_23
*1731 FILLER_42_239
*1732 FILLER_42_251
*1733 FILLER_42_253
*1734 FILLER_42_265
*1735 FILLER_42_27
*1736 FILLER_42_271
*1737 FILLER_42_283
*1738 FILLER_42_295
*1739 FILLER_42_38
*1740 FILLER_42_47
*1741 FILLER_42_53