*SPEF "ieee 1481-1999"
*DESIGN "option23"
*DATE "11:11:11 Fri 11 11, 1111"
*VENDOR "OpenRCX"
*PROGRAM "Parallel Extraction"
*VERSION "1.0"
*DESIGN_FLOW "NAME_SCOPE LOCAL" "PIN_CAP NONE"
*DIVIDER /
*DELIMITER :
*BUS_DELIMITER []
*T_UNIT 1 NS
*C_UNIT 1 PF
*R_UNIT 1 OHM
*L_UNIT 1 HENRY

*NAME_MAP
*1 io_in[0]
*2 io_in[1]
*3 io_in[2]
*4 io_in[3]
*5 io_in[4]
*6 io_in[5]
*7 io_in[6]
*8 io_in[7]
*9 io_out[0]
*10 io_out[1]
*11 io_out[2]
*12 io_out[3]
*13 io_out[4]
*14 io_out[5]
*15 io_out[6]
*16 io_out[7]
*19 _0000_
*20 _0001_
*21 _0002_
*22 _0003_
*23 _0004_
*24 _0005_
*25 _0006_
*26 _0007_
*27 _0008_
*28 _0009_
*29 _0010_
*30 _0011_
*31 _0012_
*32 _0013_
*33 _0014_
*34 _0015_
*35 _0016_
*36 _0017_
*37 _0018_
*38 _0019_
*39 _0020_
*40 _0021_
*41 _0022_
*42 _0023_
*43 _0024_
*44 _0025_
*45 _0026_
*46 _0027_
*47 _0028_
*48 _0029_
*49 _0030_
*50 _0031_
*51 _0032_
*52 _0033_
*53 _0034_
*54 _0035_
*55 _0036_
*56 _0037_
*57 _0038_
*58 _0039_
*59 _0040_
*60 _0041_
*61 _0042_
*62 _0043_
*63 _0044_
*64 _0045_
*65 _0046_
*66 _0047_
*67 _0048_
*68 _0049_
*69 _0050_
*70 _0051_
*71 _0052_
*72 _0053_
*73 _0054_
*74 _0055_
*75 _0056_
*76 _0057_
*77 _0058_
*78 _0059_
*79 _0060_
*80 _0061_
*81 _0062_
*82 _0063_
*83 _0064_
*84 _0065_
*85 _0066_
*86 _0067_
*87 _0068_
*88 _0069_
*89 _0070_
*90 _0071_
*91 _0072_
*92 _0073_
*93 _0074_
*94 _0075_
*95 _0076_
*96 _0077_
*97 _0078_
*98 _0079_
*99 _0080_
*100 _0081_
*101 _0082_
*102 _0083_
*103 _0084_
*104 _0085_
*105 _0086_
*106 _0087_
*107 _0088_
*108 _0089_
*109 _0090_
*110 _0091_
*111 _0092_
*112 _0093_
*113 _0094_
*114 _0095_
*115 _0096_
*116 _0097_
*117 _0098_
*118 _0099_
*119 _0100_
*120 _0101_
*121 _0102_
*122 _0103_
*123 _0104_
*124 _0105_
*125 _0106_
*126 _0107_
*127 _0108_
*128 _0109_
*129 _0110_
*130 _0111_
*131 _0112_
*132 _0113_
*133 _0114_
*134 _0115_
*135 _0116_
*136 _0117_
*137 _0118_
*138 _0119_
*139 _0120_
*140 _0121_
*141 _0122_
*142 _0123_
*143 _0124_
*144 _0125_
*145 _0126_
*146 _0127_
*147 _0128_
*148 _0129_
*149 _0130_
*150 _0131_
*151 _0132_
*152 _0133_
*153 _0134_
*154 _0135_
*155 _0136_
*156 _0137_
*157 _0138_
*158 _0139_
*159 _0140_
*160 _0141_
*161 _0142_
*162 _0143_
*163 _0144_
*164 _0145_
*165 _0146_
*166 _0147_
*167 _0148_
*168 _0149_
*169 _0150_
*170 _0151_
*171 _0152_
*172 _0153_
*173 _0154_
*174 _0155_
*175 _0156_
*176 _0157_
*177 _0158_
*178 _0159_
*179 _0160_
*180 _0161_
*181 _0162_
*182 _0163_
*183 _0164_
*184 _0165_
*185 _0166_
*186 _0167_
*187 _0168_
*188 _0169_
*189 _0170_
*190 _0171_
*191 _0172_
*192 _0173_
*193 _0174_
*194 _0175_
*195 _0176_
*196 _0177_
*197 _0178_
*198 _0179_
*199 _0180_
*200 _0181_
*201 _0182_
*202 _0183_
*203 _0184_
*204 _0185_
*205 _0186_
*206 _0187_
*207 _0188_
*208 _0189_
*209 _0190_
*210 _0191_
*211 _0192_
*212 _0193_
*213 _0194_
*214 _0195_
*215 _0196_
*216 _0197_
*217 _0198_
*218 _0199_
*219 _0200_
*220 _0201_
*221 _0202_
*222 _0203_
*223 _0204_
*224 _0205_
*225 _0206_
*226 _0207_
*227 _0208_
*228 _0209_
*229 _0210_
*230 _0211_
*231 _0212_
*232 _0213_
*233 _0214_
*234 _0215_
*235 _0216_
*236 _0217_
*237 _0218_
*238 _0219_
*239 _0220_
*240 _0221_
*241 _0222_
*242 _0223_
*243 _0224_
*244 _0225_
*245 _0226_
*246 _0227_
*247 _0228_
*248 _0229_
*249 _0230_
*250 _0231_
*251 _0232_
*252 _0233_
*253 _0234_
*254 _0235_
*255 _0236_
*256 _0237_
*257 _0238_
*258 _0239_
*259 _0240_
*260 _0241_
*261 _0242_
*262 _0243_
*263 _0244_
*264 _0245_
*265 _0246_
*266 _0247_
*267 _0248_
*268 _0249_
*269 _0250_
*270 _0251_
*271 _0252_
*272 _0253_
*273 _0254_
*274 _0255_
*275 _0256_
*276 _0257_
*277 _0258_
*278 _0259_
*279 _0260_
*280 _0261_
*281 _0262_
*282 _0263_
*283 _0264_
*284 _0265_
*285 _0266_
*286 _0267_
*287 _0268_
*288 _0269_
*289 _0270_
*290 _0271_
*291 _0272_
*292 _0273_
*293 _0274_
*294 _0275_
*295 _0276_
*296 _0277_
*297 _0278_
*298 _0279_
*299 _0280_
*300 _0281_
*301 _0282_
*302 _0283_
*303 _0284_
*304 _0285_
*305 _0286_
*306 _0287_
*307 _0288_
*308 _0289_
*309 _0290_
*310 _0291_
*311 _0292_
*312 _0293_
*313 _0294_
*314 _0295_
*315 _0296_
*316 _0297_
*317 _0298_
*318 _0299_
*319 _0300_
*320 _0301_
*321 _0302_
*322 _0303_
*323 _0304_
*324 _0305_
*325 _0306_
*326 _0307_
*327 _0308_
*328 _0309_
*329 _0310_
*330 _0311_
*331 _0312_
*332 _0313_
*333 _0314_
*334 _0315_
*335 _0316_
*336 _0317_
*337 _0318_
*338 _0319_
*339 _0320_
*340 _0321_
*341 _0322_
*342 _0323_
*343 _0324_
*344 _0325_
*345 _0326_
*346 _0327_
*347 _0328_
*348 _0329_
*349 _0330_
*350 _0331_
*351 _0332_
*352 _0333_
*353 _0334_
*354 _0335_
*355 _0336_
*356 _0337_
*357 _0338_
*358 _0339_
*359 _0340_
*360 _0341_
*361 _0342_
*362 _0343_
*363 _0344_
*364 _0345_
*365 _0346_
*366 _0347_
*367 _0348_
*368 _0349_
*369 _0350_
*370 _0351_
*371 _0352_
*372 _0353_
*373 _0354_
*374 _0355_
*375 _0356_
*376 _0357_
*377 _0358_
*378 _0359_
*379 _0360_
*380 _0361_
*381 _0362_
*382 _0363_
*383 _0364_
*384 _0365_
*385 _0366_
*386 _0367_
*387 _0368_
*388 _0369_
*389 _0370_
*390 _0371_
*391 _0372_
*392 _0373_
*393 _0374_
*394 _0375_
*395 _0376_
*396 _0377_
*397 _0378_
*398 _0379_
*399 _0380_
*400 _0381_
*401 _0382_
*402 _0383_
*403 _0384_
*404 _0385_
*405 _0386_
*406 _0387_
*407 _0388_
*408 _0389_
*409 _0390_
*410 _0391_
*411 _0392_
*412 _0393_
*413 _0394_
*414 _0395_
*415 _0396_
*416 _0397_
*417 _0398_
*418 _0399_
*419 _0400_
*420 _0401_
*421 _0402_
*422 _0403_
*423 _0404_
*424 _0405_
*425 _0406_
*426 _0407_
*427 _0408_
*428 _0409_
*429 _0410_
*430 _0411_
*431 _0412_
*432 _0413_
*433 _0414_
*434 _0415_
*435 _0416_
*436 _0417_
*437 _0418_
*438 _0419_
*439 _0420_
*440 _0421_
*441 _0422_
*442 _0423_
*443 _0424_
*444 _0425_
*445 _0426_
*446 _0427_
*447 _0428_
*448 _0429_
*449 _0430_
*450 _0431_
*451 _0432_
*452 _0433_
*453 _0434_
*454 _0435_
*455 _0436_
*456 _0437_
*457 _0438_
*458 _0439_
*459 _0440_
*460 _0441_
*461 _0442_
*462 _0443_
*463 _0444_
*464 _0445_
*465 _0446_
*466 _0447_
*467 _0448_
*468 _0449_
*469 _0450_
*470 _0451_
*471 _0452_
*472 _0453_
*473 _0454_
*474 _0455_
*475 _0456_
*476 _0457_
*477 _0458_
*478 _0459_
*479 _0460_
*480 _0461_
*481 _0462_
*482 _0463_
*483 _0464_
*484 _0465_
*485 _0466_
*486 _0467_
*487 _0468_
*488 _0469_
*489 _0470_
*490 _0471_
*491 _0472_
*492 _0473_
*493 _0474_
*494 _0475_
*495 _0476_
*496 _0477_
*497 _0478_
*498 _0479_
*499 _0480_
*500 _0481_
*501 _0482_
*502 _0483_
*503 _0484_
*504 _0485_
*505 _0486_
*506 _0487_
*507 _0488_
*508 _0489_
*509 _0490_
*510 _0491_
*511 _0492_
*512 _0493_
*513 _0494_
*514 _0495_
*515 _0496_
*516 _0497_
*517 _0498_
*518 _0499_
*519 _0500_
*520 _0501_
*521 _0502_
*522 _0503_
*523 _0504_
*524 _0505_
*525 _0506_
*526 _0507_
*527 _0508_
*528 _0509_
*529 _0510_
*530 _0511_
*531 _0512_
*532 _0513_
*533 _0514_
*534 _0515_
*535 _0516_
*536 _0517_
*537 _0518_
*538 _0519_
*539 _0520_
*540 _0521_
*541 _0522_
*542 _0523_
*543 _0524_
*544 _0525_
*545 _0526_
*546 _0527_
*547 _0528_
*548 _0529_
*549 _0530_
*550 _0531_
*551 _0532_
*552 _0533_
*553 _0534_
*554 _0535_
*555 _0536_
*556 _0537_
*557 _0538_
*558 _0539_
*559 _0540_
*560 _0541_
*561 _0542_
*562 _0543_
*563 _0544_
*564 _0545_
*565 _0546_
*566 _0547_
*567 _0548_
*568 _0549_
*569 _0550_
*570 _0551_
*571 _0552_
*572 _0553_
*573 _0554_
*574 _0555_
*575 _0556_
*576 _0557_
*577 _0558_
*578 _0559_
*579 _0560_
*580 _0561_
*581 _0562_
*582 _0563_
*583 _0564_
*584 _0565_
*585 _0566_
*586 _0567_
*587 _0568_
*588 _0569_
*589 _0570_
*590 _0571_
*591 _0572_
*592 _0573_
*593 _0574_
*594 _0575_
*595 _0576_
*596 _0577_
*597 _0578_
*598 _0579_
*599 _0580_
*600 _0581_
*601 _0582_
*602 _0583_
*603 _0584_
*604 _0585_
*605 _0586_
*606 _0587_
*607 _0588_
*608 _0589_
*609 _0590_
*610 _0591_
*611 _0592_
*612 _0593_
*613 _0594_
*614 _0595_
*615 _0596_
*616 _0597_
*617 _0598_
*618 _0599_
*619 _0600_
*620 _0601_
*621 _0602_
*622 _0603_
*623 _0604_
*624 _0605_
*625 _0606_
*626 _0607_
*627 _0608_
*628 _0609_
*629 _0610_
*630 _0611_
*631 _0612_
*632 _0613_
*633 _0614_
*634 _0615_
*635 _0616_
*636 _0617_
*637 _0618_
*638 _0619_
*639 _0620_
*640 _0621_
*641 _0622_
*642 _0623_
*643 _0624_
*644 _0625_
*645 _0626_
*646 _0627_
*647 _0628_
*648 _0629_
*649 _0630_
*650 _0631_
*651 _0632_
*652 _0633_
*653 _0634_
*654 _0635_
*655 _0636_
*656 _0637_
*657 _0638_
*658 _0639_
*659 _0640_
*660 _0641_
*661 _0642_
*662 _0643_
*663 _0644_
*664 _0645_
*665 _0646_
*666 _0647_
*667 _0648_
*668 _0649_
*669 _0650_
*670 _0651_
*671 _0652_
*672 _0653_
*673 _0654_
*674 _0655_
*675 _0656_
*676 _0657_
*677 _0658_
*678 _0659_
*679 _0660_
*680 _0661_
*681 _0662_
*682 _0663_
*683 _0664_
*684 _0665_
*685 _0666_
*686 _0667_
*687 _0668_
*688 _0669_
*689 _0670_
*690 _0671_
*691 _0672_
*692 _0673_
*693 _0674_
*694 _0675_
*695 _0676_
*696 _0677_
*697 _0678_
*698 _0679_
*699 _0680_
*700 _0681_
*701 _0682_
*702 _0683_
*703 _0684_
*704 _0685_
*705 _0686_
*706 _0687_
*707 _0688_
*708 _0689_
*709 _0690_
*710 _0691_
*711 _0692_
*712 _0693_
*713 _0694_
*714 _0695_
*715 _0696_
*716 _0697_
*717 _0698_
*718 _0699_
*719 _0700_
*720 _0701_
*721 _0702_
*722 _0703_
*723 _0704_
*724 _0705_
*725 _0706_
*726 _0707_
*727 _0708_
*728 _0709_
*729 _0710_
*730 _0711_
*731 _0712_
*732 _0713_
*733 _0714_
*734 _0715_
*735 _0716_
*736 _0717_
*737 _0718_
*738 _0719_
*739 _0720_
*740 _0721_
*741 _0722_
*742 _0723_
*743 _0724_
*744 _0725_
*745 _0726_
*746 _0727_
*747 _0728_
*748 _0729_
*749 _0730_
*750 _0731_
*751 _0732_
*752 _0733_
*753 _0734_
*754 _0735_
*755 _0736_
*756 _0737_
*757 _0738_
*758 _0739_
*759 _0740_
*760 _0741_
*761 _0742_
*762 _0743_
*763 _0744_
*764 _0745_
*765 _0746_
*766 _0747_
*767 _0748_
*768 _0749_
*769 _0750_
*770 _0751_
*771 _0752_
*772 _0753_
*773 _0754_
*774 _0755_
*775 _0756_
*776 _0757_
*777 _0758_
*778 _0759_
*779 _0760_
*780 _0761_
*781 _0762_
*782 _0763_
*783 _0764_
*784 _0765_
*785 _0766_
*786 _0767_
*787 _0768_
*788 _0769_
*789 _0770_
*790 _0771_
*791 _0772_
*792 _0773_
*793 buffer\[0\]
*794 buffer\[100\]
*795 buffer\[101\]
*796 buffer\[102\]
*797 buffer\[103\]
*798 buffer\[104\]
*799 buffer\[105\]
*800 buffer\[106\]
*801 buffer\[107\]
*802 buffer\[108\]
*803 buffer\[109\]
*804 buffer\[10\]
*805 buffer\[110\]
*806 buffer\[111\]
*807 buffer\[112\]
*808 buffer\[113\]
*809 buffer\[114\]
*810 buffer\[115\]
*811 buffer\[116\]
*812 buffer\[117\]
*813 buffer\[118\]
*814 buffer\[119\]
*815 buffer\[11\]
*816 buffer\[120\]
*817 buffer\[121\]
*818 buffer\[122\]
*819 buffer\[123\]
*820 buffer\[124\]
*821 buffer\[125\]
*822 buffer\[126\]
*823 buffer\[127\]
*824 buffer\[128\]
*825 buffer\[129\]
*826 buffer\[12\]
*827 buffer\[130\]
*828 buffer\[131\]
*829 buffer\[132\]
*830 buffer\[133\]
*831 buffer\[134\]
*832 buffer\[135\]
*833 buffer\[136\]
*834 buffer\[137\]
*835 buffer\[138\]
*836 buffer\[139\]
*837 buffer\[13\]
*838 buffer\[14\]
*839 buffer\[15\]
*840 buffer\[16\]
*841 buffer\[17\]
*842 buffer\[18\]
*843 buffer\[19\]
*844 buffer\[1\]
*845 buffer\[20\]
*846 buffer\[21\]
*847 buffer\[22\]
*848 buffer\[23\]
*849 buffer\[24\]
*850 buffer\[25\]
*851 buffer\[26\]
*852 buffer\[27\]
*853 buffer\[28\]
*854 buffer\[29\]
*855 buffer\[2\]
*856 buffer\[30\]
*857 buffer\[31\]
*858 buffer\[32\]
*859 buffer\[33\]
*860 buffer\[34\]
*861 buffer\[35\]
*862 buffer\[36\]
*863 buffer\[37\]
*864 buffer\[38\]
*865 buffer\[39\]
*866 buffer\[3\]
*867 buffer\[40\]
*868 buffer\[41\]
*869 buffer\[42\]
*870 buffer\[43\]
*871 buffer\[44\]
*872 buffer\[45\]
*873 buffer\[46\]
*874 buffer\[47\]
*875 buffer\[48\]
*876 buffer\[49\]
*877 buffer\[4\]
*878 buffer\[50\]
*879 buffer\[51\]
*880 buffer\[52\]
*881 buffer\[53\]
*882 buffer\[54\]
*883 buffer\[55\]
*884 buffer\[56\]
*885 buffer\[57\]
*886 buffer\[58\]
*887 buffer\[59\]
*888 buffer\[5\]
*889 buffer\[60\]
*890 buffer\[61\]
*891 buffer\[62\]
*892 buffer\[63\]
*893 buffer\[64\]
*894 buffer\[65\]
*895 buffer\[66\]
*896 buffer\[67\]
*897 buffer\[68\]
*898 buffer\[69\]
*899 buffer\[6\]
*900 buffer\[70\]
*901 buffer\[71\]
*902 buffer\[72\]
*903 buffer\[73\]
*904 buffer\[74\]
*905 buffer\[75\]
*906 buffer\[76\]
*907 buffer\[77\]
*908 buffer\[78\]
*909 buffer\[79\]
*910 buffer\[7\]
*911 buffer\[80\]
*912 buffer\[81\]
*913 buffer\[82\]
*914 buffer\[83\]
*915 buffer\[84\]
*916 buffer\[85\]
*917 buffer\[86\]
*918 buffer\[87\]
*919 buffer\[88\]
*920 buffer\[89\]
*921 buffer\[8\]
*922 buffer\[90\]
*923 buffer\[91\]
*924 buffer\[92\]
*925 buffer\[93\]
*926 buffer\[94\]
*927 buffer\[95\]
*928 buffer\[96\]
*929 buffer\[97\]
*930 buffer\[98\]
*931 buffer\[99\]
*932 buffer\[9\]
*933 clknet_0_io_in[0]
*934 clknet_4_0_0_io_in[0]
*935 clknet_4_10_0_io_in[0]
*936 clknet_4_11_0_io_in[0]
*937 clknet_4_12_0_io_in[0]
*938 clknet_4_13_0_io_in[0]
*939 clknet_4_14_0_io_in[0]
*940 clknet_4_15_0_io_in[0]
*941 clknet_4_1_0_io_in[0]
*942 clknet_4_2_0_io_in[0]
*943 clknet_4_3_0_io_in[0]
*944 clknet_4_4_0_io_in[0]
*945 clknet_4_5_0_io_in[0]
*946 clknet_4_6_0_io_in[0]
*947 clknet_4_7_0_io_in[0]
*948 clknet_4_8_0_io_in[0]
*949 clknet_4_9_0_io_in[0]
*950 counter\[0\]
*951 counter\[1\]
*952 counter\[2\]
*953 net1
*954 net2
*955 net3
*956 net4
*957 net5
*958 net6
*959 net7
*960 ANTENNA_0
*961 ANTENNA_1
*962 ANTENNA_10
*963 ANTENNA_11
*964 ANTENNA_12
*965 ANTENNA_13
*966 ANTENNA_14
*967 ANTENNA_15
*968 ANTENNA_16
*969 ANTENNA_17
*970 ANTENNA_18
*971 ANTENNA_19
*972 ANTENNA_2
*973 ANTENNA_20
*974 ANTENNA_21
*975 ANTENNA_22
*976 ANTENNA_23
*977 ANTENNA_24
*978 ANTENNA_25
*979 ANTENNA_26
*980 ANTENNA_27
*981 ANTENNA_28
*982 ANTENNA_29
*983 ANTENNA_3
*984 ANTENNA_30
*985 ANTENNA_31
*986 ANTENNA_32
*987 ANTENNA_33
*988 ANTENNA_34
*989 ANTENNA_35
*990 ANTENNA_36
*991 ANTENNA_37
*992 ANTENNA_38
*993 ANTENNA_4
*994 ANTENNA_5
*995 ANTENNA_6
*996 ANTENNA_7
*997 ANTENNA_8
*998 ANTENNA_9
*999 FILLER_0_109
*1000 FILLER_0_113
*1001 FILLER_0_125
*1002 FILLER_0_131
*1003 FILLER_0_135
*1004 FILLER_0_139
*1005 FILLER_0_141
*1006 FILLER_0_153
*1007 FILLER_0_164
*1008 FILLER_0_172
*1009 FILLER_0_179
*1010 FILLER_0_187
*1011 FILLER_0_19
*1012 FILLER_0_192
*1013 FILLER_0_197
*1014 FILLER_0_204
*1015 FILLER_0_211
*1016 FILLER_0_220
*1017 FILLER_0_234
*1018 FILLER_0_242
*1019 FILLER_0_248
*1020 FILLER_0_262
*1021 FILLER_0_27
*1022 FILLER_0_270
*1023 FILLER_0_275
*1024 FILLER_0_279
*1025 FILLER_0_281
*1026 FILLER_0_291
*1027 FILLER_0_45
*1028 FILLER_0_49
*1029 FILLER_0_55
*1030 FILLER_0_57
*1031 FILLER_0_63
*1032 FILLER_0_80
*1033 FILLER_0_85
*1034 FILLER_0_97
*1035 FILLER_10_101
*1036 FILLER_10_113
*1037 FILLER_10_125
*1038 FILLER_10_137
*1039 FILLER_10_141
*1040 FILLER_10_153
*1041 FILLER_10_157
*1042 FILLER_10_174
*1043 FILLER_10_186
*1044 FILLER_10_194
*1045 FILLER_10_20
*1046 FILLER_10_206
*1047 FILLER_10_214
*1048 FILLER_10_218
*1049 FILLER_10_225
*1050 FILLER_10_232
*1051 FILLER_10_236
*1052 FILLER_10_240
*1053 FILLER_10_248
*1054 FILLER_10_256
*1055 FILLER_10_263
*1056 FILLER_10_271
*1057 FILLER_10_275
*1058 FILLER_10_289
*1059 FILLER_10_297
*1060 FILLER_10_33
*1061 FILLER_10_37
*1062 FILLER_10_54
*1063 FILLER_10_78
*1064 FILLER_11_103
*1065 FILLER_11_111
*1066 FILLER_11_113
*1067 FILLER_11_125
*1068 FILLER_11_143
*1069 FILLER_11_147
*1070 FILLER_11_164
*1071 FILLER_11_169
*1072 FILLER_11_177
*1073 FILLER_11_182
*1074 FILLER_11_194
*1075 FILLER_11_198
*1076 FILLER_11_206
*1077 FILLER_11_21
*1078 FILLER_11_217
*1079 FILLER_11_223
*1080 FILLER_11_228
*1081 FILLER_11_246
*1082 FILLER_11_259
*1083 FILLER_11_265
*1084 FILLER_11_276
*1085 FILLER_11_291
*1086 FILLER_11_3
*1087 FILLER_11_33
*1088 FILLER_11_52
*1089 FILLER_11_57
*1090 FILLER_11_69
*1091 FILLER_11_91
*1092 FILLER_12_116
*1093 FILLER_12_136
*1094 FILLER_12_141
*1095 FILLER_12_149
*1096 FILLER_12_166
*1097 FILLER_12_172
*1098 FILLER_12_182
*1099 FILLER_12_189
*1100 FILLER_12_19
*1101 FILLER_12_195
*1102 FILLER_12_197
*1103 FILLER_12_207
*1104 FILLER_12_220
*1105 FILLER_12_224
*1106 FILLER_12_23
*1107 FILLER_12_235
*1108 FILLER_12_248
*1109 FILLER_12_253
*1110 FILLER_12_258
*1111 FILLER_12_27
*1112 FILLER_12_272
*1113 FILLER_12_286
*1114 FILLER_12_29
*1115 FILLER_12_294
*1116 FILLER_12_298
*1117 FILLER_12_35
*1118 FILLER_12_55
*1119 FILLER_12_80
*1120 FILLER_12_85
*1121 FILLER_12_96
*1122 FILLER_13_105
*1123 FILLER_13_111
*1124 FILLER_13_113
*1125 FILLER_13_122
*1126 FILLER_13_126
*1127 FILLER_13_129
*1128 FILLER_13_148
*1129 FILLER_13_160
*1130 FILLER_13_179
*1131 FILLER_13_194
*1132 FILLER_13_201
*1133 FILLER_13_209
*1134 FILLER_13_21
*1135 FILLER_13_220
*1136 FILLER_13_225
*1137 FILLER_13_236
*1138 FILLER_13_244
*1139 FILLER_13_25
*1140 FILLER_13_254
*1141 FILLER_13_258
*1142 FILLER_13_263
*1143 FILLER_13_276
*1144 FILLER_13_291
*1145 FILLER_13_3
*1146 FILLER_13_42
*1147 FILLER_13_54
*1148 FILLER_13_57
*1149 FILLER_13_69
*1150 FILLER_13_81
*1151 FILLER_13_93
*1152 FILLER_14_101
*1153 FILLER_14_113
*1154 FILLER_14_119
*1155 FILLER_14_136
*1156 FILLER_14_157
*1157 FILLER_14_172
*1158 FILLER_14_185
*1159 FILLER_14_192
*1160 FILLER_14_197
*1161 FILLER_14_201
*1162 FILLER_14_21
*1163 FILLER_14_218
*1164 FILLER_14_233
*1165 FILLER_14_248
*1166 FILLER_14_253
*1167 FILLER_14_266
*1168 FILLER_14_27
*1169 FILLER_14_279
*1170 FILLER_14_29
*1171 FILLER_14_295
*1172 FILLER_14_3
*1173 FILLER_14_41
*1174 FILLER_14_49
*1175 FILLER_14_67
*1176 FILLER_14_79
*1177 FILLER_14_83
*1178 FILLER_15_107
*1179 FILLER_15_111
*1180 FILLER_15_113
*1181 FILLER_15_133
*1182 FILLER_15_153
*1183 FILLER_15_164
*1184 FILLER_15_178
*1185 FILLER_15_18
*1186 FILLER_15_190
*1187 FILLER_15_197
*1188 FILLER_15_209
*1189 FILLER_15_220
*1190 FILLER_15_225
*1191 FILLER_15_241
*1192 FILLER_15_254
*1193 FILLER_15_267
*1194 FILLER_15_271
*1195 FILLER_15_276
*1196 FILLER_15_290
*1197 FILLER_15_298
*1198 FILLER_15_38
*1199 FILLER_15_50
*1200 FILLER_15_57
*1201 FILLER_15_6
*1202 FILLER_15_63
*1203 FILLER_15_80
*1204 FILLER_15_88
*1205 FILLER_16_101
*1206 FILLER_16_121
*1207 FILLER_16_128
*1208 FILLER_16_141
*1209 FILLER_16_169
*1210 FILLER_16_182
*1211 FILLER_16_189
*1212 FILLER_16_195
*1213 FILLER_16_206
*1214 FILLER_16_21
*1215 FILLER_16_213
*1216 FILLER_16_220
*1217 FILLER_16_233
*1218 FILLER_16_239
*1219 FILLER_16_244
*1220 FILLER_16_262
*1221 FILLER_16_266
*1222 FILLER_16_27
*1223 FILLER_16_277
*1224 FILLER_16_29
*1225 FILLER_16_292
*1226 FILLER_16_298
*1227 FILLER_16_3
*1228 FILLER_16_40
*1229 FILLER_16_60
*1230 FILLER_16_80
*1231 FILLER_16_85
*1232 FILLER_16_89
*1233 FILLER_17_105
*1234 FILLER_17_111
*1235 FILLER_17_113
*1236 FILLER_17_117
*1237 FILLER_17_124
*1238 FILLER_17_13
*1239 FILLER_17_136
*1240 FILLER_17_154
*1241 FILLER_17_166
*1242 FILLER_17_185
*1243 FILLER_17_192
*1244 FILLER_17_200
*1245 FILLER_17_212
*1246 FILLER_17_216
*1247 FILLER_17_220
*1248 FILLER_17_228
*1249 FILLER_17_232
*1250 FILLER_17_236
*1251 FILLER_17_243
*1252 FILLER_17_25
*1253 FILLER_17_250
*1254 FILLER_17_268
*1255 FILLER_17_281
*1256 FILLER_17_285
*1257 FILLER_17_292
*1258 FILLER_17_298
*1259 FILLER_17_33
*1260 FILLER_17_52
*1261 FILLER_17_57
*1262 FILLER_17_72
*1263 FILLER_17_84
*1264 FILLER_17_88
*1265 FILLER_18_101
*1266 FILLER_18_109
*1267 FILLER_18_114
*1268 FILLER_18_136
*1269 FILLER_18_141
*1270 FILLER_18_151
*1271 FILLER_18_155
*1272 FILLER_18_172
*1273 FILLER_18_182
*1274 FILLER_18_19
*1275 FILLER_18_194
*1276 FILLER_18_197
*1277 FILLER_18_204
*1278 FILLER_18_212
*1279 FILLER_18_216
*1280 FILLER_18_237
*1281 FILLER_18_249
*1282 FILLER_18_253
*1283 FILLER_18_261
*1284 FILLER_18_264
*1285 FILLER_18_27
*1286 FILLER_18_275
*1287 FILLER_18_287
*1288 FILLER_18_293
*1289 FILLER_18_36
*1290 FILLER_18_40
*1291 FILLER_18_57
*1292 FILLER_18_77
*1293 FILLER_18_83
*1294 FILLER_19_104
*1295 FILLER_19_11
*1296 FILLER_19_113
*1297 FILLER_19_117
*1298 FILLER_19_121
*1299 FILLER_19_129
*1300 FILLER_19_148
*1301 FILLER_19_152
*1302 FILLER_19_156
*1303 FILLER_19_169
*1304 FILLER_19_181
*1305 FILLER_19_190
*1306 FILLER_19_202
*1307 FILLER_19_210
*1308 FILLER_19_220
*1309 FILLER_19_225
*1310 FILLER_19_23
*1311 FILLER_19_237
*1312 FILLER_19_241
*1313 FILLER_19_255
*1314 FILLER_19_267
*1315 FILLER_19_279
*1316 FILLER_19_290
*1317 FILLER_19_298
*1318 FILLER_19_3
*1319 FILLER_19_35
*1320 FILLER_19_52
*1321 FILLER_19_57
*1322 FILLER_19_69
*1323 FILLER_19_81
*1324 FILLER_19_87
*1325 FILLER_1_107
*1326 FILLER_1_111
*1327 FILLER_1_129
*1328 FILLER_1_135
*1329 FILLER_1_139
*1330 FILLER_1_159
*1331 FILLER_1_167
*1332 FILLER_1_178
*1333 FILLER_1_185
*1334 FILLER_1_192
*1335 FILLER_1_20
*1336 FILLER_1_205
*1337 FILLER_1_218
*1338 FILLER_1_225
*1339 FILLER_1_231
*1340 FILLER_1_245
*1341 FILLER_1_258
*1342 FILLER_1_266
*1343 FILLER_1_276
*1344 FILLER_1_281
*1345 FILLER_1_285
*1346 FILLER_1_295
*1347 FILLER_1_3
*1348 FILLER_1_32
*1349 FILLER_1_52
*1350 FILLER_1_57
*1351 FILLER_1_69
*1352 FILLER_1_87
*1353 FILLER_20_108
*1354 FILLER_20_128
*1355 FILLER_20_135
*1356 FILLER_20_139
*1357 FILLER_20_150
*1358 FILLER_20_162
*1359 FILLER_20_174
*1360 FILLER_20_179
*1361 FILLER_20_186
*1362 FILLER_20_194
*1363 FILLER_20_206
*1364 FILLER_20_212
*1365 FILLER_20_22
*1366 FILLER_20_222
*1367 FILLER_20_234
*1368 FILLER_20_238
*1369 FILLER_20_248
*1370 FILLER_20_253
*1371 FILLER_20_259
*1372 FILLER_20_263
*1373 FILLER_20_275
*1374 FILLER_20_287
*1375 FILLER_20_29
*1376 FILLER_20_292
*1377 FILLER_20_298
*1378 FILLER_20_3
*1379 FILLER_20_37
*1380 FILLER_20_56
*1381 FILLER_20_71
*1382 FILLER_20_83
*1383 FILLER_20_85
*1384 FILLER_20_91
*1385 FILLER_21_107
*1386 FILLER_21_111
*1387 FILLER_21_129
*1388 FILLER_21_141
*1389 FILLER_21_151
*1390 FILLER_21_158
*1391 FILLER_21_166
*1392 FILLER_21_169
*1393 FILLER_21_177
*1394 FILLER_21_18
*1395 FILLER_21_181
*1396 FILLER_21_187
*1397 FILLER_21_197
*1398 FILLER_21_210
*1399 FILLER_21_222
*1400 FILLER_21_234
*1401 FILLER_21_246
*1402 FILLER_21_258
*1403 FILLER_21_270
*1404 FILLER_21_278
*1405 FILLER_21_281
*1406 FILLER_21_295
*1407 FILLER_21_3
*1408 FILLER_21_38
*1409 FILLER_21_50
*1410 FILLER_21_73
*1411 FILLER_21_85
*1412 FILLER_22_109
*1413 FILLER_22_129
*1414 FILLER_22_137
*1415 FILLER_22_150
*1416 FILLER_22_163
*1417 FILLER_22_180
*1418 FILLER_22_19
*1419 FILLER_22_192
*1420 FILLER_22_197
*1421 FILLER_22_205
*1422 FILLER_22_209
*1423 FILLER_22_215
*1424 FILLER_22_219
*1425 FILLER_22_225
*1426 FILLER_22_236
*1427 FILLER_22_243
*1428 FILLER_22_251
*1429 FILLER_22_262
*1430 FILLER_22_27
*1431 FILLER_22_275
*1432 FILLER_22_287
*1433 FILLER_22_29
*1434 FILLER_22_41
*1435 FILLER_22_60
*1436 FILLER_22_80
*1437 FILLER_22_85
*1438 FILLER_22_97
*1439 FILLER_23_103
*1440 FILLER_23_111
*1441 FILLER_23_116
*1442 FILLER_23_124
*1443 FILLER_23_141
*1444 FILLER_23_149
*1445 FILLER_23_164
*1446 FILLER_23_169
*1447 FILLER_23_177
*1448 FILLER_23_187
*1449 FILLER_23_20
*1450 FILLER_23_200
*1451 FILLER_23_213
*1452 FILLER_23_221
*1453 FILLER_23_225
*1454 FILLER_23_240
*1455 FILLER_23_253
*1456 FILLER_23_26
*1457 FILLER_23_260
*1458 FILLER_23_272
*1459 FILLER_23_281
*1460 FILLER_23_293
*1461 FILLER_23_3
*1462 FILLER_23_43
*1463 FILLER_23_55
*1464 FILLER_23_73
*1465 FILLER_23_85
*1466 FILLER_24_101
*1467 FILLER_24_113
*1468 FILLER_24_133
*1469 FILLER_24_139
*1470 FILLER_24_141
*1471 FILLER_24_163
*1472 FILLER_24_169
*1473 FILLER_24_179
*1474 FILLER_24_186
*1475 FILLER_24_194
*1476 FILLER_24_197
*1477 FILLER_24_209
*1478 FILLER_24_21
*1479 FILLER_24_213
*1480 FILLER_24_224
*1481 FILLER_24_233
*1482 FILLER_24_247
*1483 FILLER_24_251
*1484 FILLER_24_253
*1485 FILLER_24_269
*1486 FILLER_24_27
*1487 FILLER_24_281
*1488 FILLER_24_29
*1489 FILLER_24_293
*1490 FILLER_24_3
*1491 FILLER_24_35
*1492 FILLER_24_38
*1493 FILLER_24_56
*1494 FILLER_24_68
*1495 FILLER_24_80
*1496 FILLER_25_106
*1497 FILLER_25_113
*1498 FILLER_25_131
*1499 FILLER_25_146
*1500 FILLER_25_156
*1501 FILLER_25_169
*1502 FILLER_25_181
*1503 FILLER_25_193
*1504 FILLER_25_205
*1505 FILLER_25_217
*1506 FILLER_25_223
*1507 FILLER_25_225
*1508 FILLER_25_229
*1509 FILLER_25_23
*1510 FILLER_25_239
*1511 FILLER_25_247
*1512 FILLER_25_259
*1513 FILLER_25_265
*1514 FILLER_25_276
*1515 FILLER_25_281
*1516 FILLER_25_293
*1517 FILLER_25_3
*1518 FILLER_25_43
*1519 FILLER_25_55
*1520 FILLER_25_57
*1521 FILLER_25_69
*1522 FILLER_25_81
*1523 FILLER_25_89
*1524 FILLER_26_103
*1525 FILLER_26_123
*1526 FILLER_26_135
*1527 FILLER_26_139
*1528 FILLER_26_141
*1529 FILLER_26_153
*1530 FILLER_26_165
*1531 FILLER_26_168
*1532 FILLER_26_179
*1533 FILLER_26_19
*1534 FILLER_26_191
*1535 FILLER_26_195
*1536 FILLER_26_206
*1537 FILLER_26_219
*1538 FILLER_26_228
*1539 FILLER_26_236
*1540 FILLER_26_248
*1541 FILLER_26_263
*1542 FILLER_26_27
*1543 FILLER_26_277
*1544 FILLER_26_289
*1545 FILLER_26_29
*1546 FILLER_26_297
*1547 FILLER_26_41
*1548 FILLER_26_45
*1549 FILLER_26_62
*1550 FILLER_26_74
*1551 FILLER_26_82
*1552 FILLER_26_85
*1553 FILLER_27_106
*1554 FILLER_27_113
*1555 FILLER_27_119
*1556 FILLER_27_136
*1557 FILLER_27_158
*1558 FILLER_27_166
*1559 FILLER_27_169
*1560 FILLER_27_184
*1561 FILLER_27_19
*1562 FILLER_27_196
*1563 FILLER_27_208
*1564 FILLER_27_220
*1565 FILLER_27_225
*1566 FILLER_27_23
*1567 FILLER_27_235
*1568 FILLER_27_243
*1569 FILLER_27_255
*1570 FILLER_27_267
*1571 FILLER_27_279
*1572 FILLER_27_281
*1573 FILLER_27_293
*1574 FILLER_27_35
*1575 FILLER_27_46
*1576 FILLER_27_54
*1577 FILLER_27_57
*1578 FILLER_27_72
*1579 FILLER_27_84
*1580 FILLER_27_92
*1581 FILLER_27_99
*1582 FILLER_28_101
*1583 FILLER_28_109
*1584 FILLER_28_128
*1585 FILLER_28_141
*1586 FILLER_28_152
*1587 FILLER_28_170
*1588 FILLER_28_174
*1589 FILLER_28_185
*1590 FILLER_28_19
*1591 FILLER_28_193
*1592 FILLER_28_197
*1593 FILLER_28_209
*1594 FILLER_28_221
*1595 FILLER_28_233
*1596 FILLER_28_246
*1597 FILLER_28_253
*1598 FILLER_28_265
*1599 FILLER_28_27
*1600 FILLER_28_277
*1601 FILLER_28_289
*1602 FILLER_28_29
*1603 FILLER_28_297
*1604 FILLER_28_37
*1605 FILLER_28_46
*1606 FILLER_28_56
*1607 FILLER_28_68
*1608 FILLER_28_80
*1609 FILLER_29_107
*1610 FILLER_29_111
*1611 FILLER_29_113
*1612 FILLER_29_125
*1613 FILLER_29_13
*1614 FILLER_29_145
*1615 FILLER_29_153
*1616 FILLER_29_165
*1617 FILLER_29_169
*1618 FILLER_29_181
*1619 FILLER_29_193
*1620 FILLER_29_201
*1621 FILLER_29_21
*1622 FILLER_29_212
*1623 FILLER_29_219
*1624 FILLER_29_223
*1625 FILLER_29_225
*1626 FILLER_29_237
*1627 FILLER_29_249
*1628 FILLER_29_25
*1629 FILLER_29_261
*1630 FILLER_29_273
*1631 FILLER_29_279
*1632 FILLER_29_281
*1633 FILLER_29_289
*1634 FILLER_29_297
*1635 FILLER_29_43
*1636 FILLER_29_55
*1637 FILLER_29_61
*1638 FILLER_29_69
*1639 FILLER_29_87
*1640 FILLER_2_101
*1641 FILLER_2_121
*1642 FILLER_2_129
*1643 FILLER_2_13
*1644 FILLER_2_134
*1645 FILLER_2_141
*1646 FILLER_2_148
*1647 FILLER_2_156
*1648 FILLER_2_174
*1649 FILLER_2_187
*1650 FILLER_2_195
*1651 FILLER_2_200
*1652 FILLER_2_207
*1653 FILLER_2_222
*1654 FILLER_2_237
*1655 FILLER_2_243
*1656 FILLER_2_248
*1657 FILLER_2_25
*1658 FILLER_2_253
*1659 FILLER_2_264
*1660 FILLER_2_268
*1661 FILLER_2_280
*1662 FILLER_2_29
*1663 FILLER_2_293
*1664 FILLER_2_41
*1665 FILLER_2_58
*1666 FILLER_2_78
*1667 FILLER_30_110
*1668 FILLER_30_122
*1669 FILLER_30_136
*1670 FILLER_30_141
*1671 FILLER_30_15
*1672 FILLER_30_153
*1673 FILLER_30_165
*1674 FILLER_30_175
*1675 FILLER_30_188
*1676 FILLER_30_197
*1677 FILLER_30_209
*1678 FILLER_30_227
*1679 FILLER_30_239
*1680 FILLER_30_24
*1681 FILLER_30_251
*1682 FILLER_30_257
*1683 FILLER_30_269
*1684 FILLER_30_281
*1685 FILLER_30_29
*1686 FILLER_30_293
*1687 FILLER_30_3
*1688 FILLER_30_39
*1689 FILLER_30_49
*1690 FILLER_30_57
*1691 FILLER_30_67
*1692 FILLER_30_73
*1693 FILLER_30_80
*1694 FILLER_30_85
*1695 FILLER_30_97
*1696 FILLER_31_101
*1697 FILLER_31_109
*1698 FILLER_31_113
*1699 FILLER_31_121
*1700 FILLER_31_132
*1701 FILLER_31_145
*1702 FILLER_31_156
*1703 FILLER_31_169
*1704 FILLER_31_181
*1705 FILLER_31_187
*1706 FILLER_31_19
*1707 FILLER_31_198
*1708 FILLER_31_206
*1709 FILLER_31_220
*1710 FILLER_31_225
*1711 FILLER_31_23
*1712 FILLER_31_232
*1713 FILLER_31_250
*1714 FILLER_31_262
*1715 FILLER_31_274
*1716 FILLER_31_281
*1717 FILLER_31_293
*1718 FILLER_31_43
*1719 FILLER_31_47
*1720 FILLER_31_51
*1721 FILLER_31_55
*1722 FILLER_31_57
*1723 FILLER_31_77
*1724 FILLER_31_89
*1725 FILLER_32_101
*1726 FILLER_32_109
*1727 FILLER_32_117
*1728 FILLER_32_136
*1729 FILLER_32_144
*1730 FILLER_32_156
*1731 FILLER_32_168
*1732 FILLER_32_180
*1733 FILLER_32_19
*1734 FILLER_32_192
*1735 FILLER_32_197
*1736 FILLER_32_205
*1737 FILLER_32_217
*1738 FILLER_32_23
*1739 FILLER_32_231
*1740 FILLER_32_245
*1741 FILLER_32_251
*1742 FILLER_32_253
*1743 FILLER_32_261
*1744 FILLER_32_27
*1745 FILLER_32_273
*1746 FILLER_32_285
*1747 FILLER_32_297
*1748 FILLER_32_37
*1749 FILLER_32_43
*1750 FILLER_32_49
*1751 FILLER_32_56
*1752 FILLER_32_80
*1753 FILLER_33_101
*1754 FILLER_33_109
*1755 FILLER_33_113
*1756 FILLER_33_12
*1757 FILLER_33_125
*1758 FILLER_33_138
*1759 FILLER_33_146
*1760 FILLER_33_157
*1761 FILLER_33_16
*1762 FILLER_33_165
*1763 FILLER_33_177
*1764 FILLER_33_183
*1765 FILLER_33_188
*1766 FILLER_33_200
*1767 FILLER_33_204
*1768 FILLER_33_215
*1769 FILLER_33_223
*1770 FILLER_33_225
*1771 FILLER_33_247
*1772 FILLER_33_257
*1773 FILLER_33_265
*1774 FILLER_33_276
*1775 FILLER_33_281
*1776 FILLER_33_285
*1777 FILLER_33_290
*1778 FILLER_33_298
*1779 FILLER_33_3
*1780 FILLER_33_34
*1781 FILLER_33_40
*1782 FILLER_33_48
*1783 FILLER_33_57
*1784 FILLER_33_66
*1785 FILLER_33_78
*1786 FILLER_33_84
*1787 FILLER_33_93
*1788 FILLER_33_97
*1789 FILLER_34_120
*1790 FILLER_34_132
*1791 FILLER_34_141
*1792 FILLER_34_153
*1793 FILLER_34_160
*1794 FILLER_34_168
*1795 FILLER_34_180
*1796 FILLER_34_190
*1797 FILLER_34_197
*1798 FILLER_34_201
*1799 FILLER_34_21
*1800 FILLER_34_210
*1801 FILLER_34_222
*1802 FILLER_34_230
*1803 FILLER_34_248
*1804 FILLER_34_263
*1805 FILLER_34_27
*1806 FILLER_34_271
*1807 FILLER_34_284
*1808 FILLER_34_29
*1809 FILLER_34_292
*1810 FILLER_34_298
*1811 FILLER_34_3
*1812 FILLER_34_43
*1813 FILLER_34_58
*1814 FILLER_34_78
*1815 FILLER_34_85
*1816 FILLER_34_89
*1817 FILLER_34_98
*1818 FILLER_35_100
*1819 FILLER_35_104
*1820 FILLER_35_113
*1821 FILLER_35_128
*1822 FILLER_35_141
*1823 FILLER_35_148
*1824 FILLER_35_15
*1825 FILLER_35_164
*1826 FILLER_35_169
*1827 FILLER_35_173
*1828 FILLER_35_177
*1829 FILLER_35_185
*1830 FILLER_35_192
*1831 FILLER_35_200
*1832 FILLER_35_212
*1833 FILLER_35_225
*1834 FILLER_35_233
*1835 FILLER_35_245
*1836 FILLER_35_257
*1837 FILLER_35_269
*1838 FILLER_35_277
*1839 FILLER_35_281
*1840 FILLER_35_293
*1841 FILLER_35_3
*1842 FILLER_35_35