*SPEF "ieee 1481-1999"
*DESIGN "option23ser"
*DATE "11:11:11 Fri 11 11, 1111"
*VENDOR "OpenRCX"
*PROGRAM "Parallel Extraction"
*VERSION "1.0"
*DESIGN_FLOW "NAME_SCOPE LOCAL" "PIN_CAP NONE"
*DIVIDER /
*DELIMITER :
*BUS_DELIMITER []
*T_UNIT 1 NS
*C_UNIT 1 PF
*R_UNIT 1 OHM
*L_UNIT 1 HENRY

*NAME_MAP
*1 io_in[0]
*2 io_in[1]
*3 io_in[2]
*4 io_in[3]
*5 io_in[4]
*6 io_in[5]
*7 io_in[6]
*8 io_in[7]
*9 io_out[0]
*10 io_out[1]
*11 io_out[2]
*12 io_out[3]
*13 io_out[4]
*14 io_out[5]
*15 io_out[6]
*16 io_out[7]
*19 _0000_
*20 _0001_
*21 _0002_
*22 _0003_
*23 _0004_
*24 _0005_
*25 _0006_
*26 _0007_
*27 _0008_
*28 _0009_
*29 _0010_
*30 _0011_
*31 _0012_
*32 _0013_
*33 _0014_
*34 _0015_
*35 _0016_
*36 _0017_
*37 _0018_
*38 _0019_
*39 _0020_
*40 _0021_
*41 _0022_
*42 _0023_
*43 _0024_
*44 _0025_
*45 _0026_
*46 _0027_
*47 _0028_
*48 _0029_
*49 _0030_
*50 _0031_
*51 _0032_
*52 _0033_
*53 _0034_
*54 _0035_
*55 _0036_
*56 _0037_
*57 _0038_
*58 _0039_
*59 _0040_
*60 _0041_
*61 _0042_
*62 _0043_
*63 _0044_
*64 _0045_
*65 _0046_
*66 _0047_
*67 _0048_
*68 _0049_
*69 _0050_
*70 _0051_
*71 _0052_
*72 _0053_
*73 _0054_
*74 _0055_
*75 _0056_
*76 _0057_
*77 _0058_
*78 _0059_
*79 _0060_
*80 _0061_
*81 _0062_
*82 _0063_
*83 _0064_
*84 _0065_
*85 _0066_
*86 _0067_
*87 _0068_
*88 _0069_
*89 _0070_
*90 _0071_
*91 _0072_
*92 _0073_
*93 _0074_
*94 _0075_
*95 _0076_
*96 _0077_
*97 _0078_
*98 _0079_
*99 _0080_
*100 _0081_
*101 _0082_
*102 _0083_
*103 _0084_
*104 _0085_
*105 _0086_
*106 _0087_
*107 _0088_
*108 _0089_
*109 _0090_
*110 _0091_
*111 _0092_
*112 _0093_
*113 _0094_
*114 _0095_
*115 _0096_
*116 _0097_
*117 _0098_
*118 _0099_
*119 _0100_
*120 _0101_
*121 _0102_
*122 _0103_
*123 _0104_
*124 _0105_
*125 _0106_
*126 _0107_
*127 _0108_
*128 _0109_
*129 _0110_
*130 _0111_
*131 _0112_
*132 _0113_
*133 _0114_
*134 _0115_
*135 _0116_
*136 _0117_
*137 _0118_
*138 _0119_
*139 _0120_
*140 _0121_
*141 _0122_
*142 _0123_
*143 _0124_
*144 _0125_
*145 _0126_
*146 _0127_
*147 _0128_
*148 _0129_
*149 _0130_
*150 _0131_
*151 _0132_
*152 _0133_
*153 _0134_
*154 _0135_
*155 _0136_
*156 _0137_
*157 _0138_
*158 _0139_
*159 _0140_
*160 _0141_
*161 _0142_
*162 _0143_
*163 _0144_
*164 _0145_
*165 _0146_
*166 _0147_
*167 _0148_
*168 _0149_
*169 _0150_
*170 _0151_
*171 _0152_
*172 _0153_
*173 _0154_
*174 _0155_
*175 _0156_
*176 _0157_
*177 _0158_
*178 _0159_
*179 _0160_
*180 _0161_
*181 _0162_
*182 _0163_
*183 _0164_
*184 _0165_
*185 _0166_
*186 _0167_
*187 _0168_
*188 _0169_
*189 _0170_
*190 _0171_
*191 _0172_
*192 _0173_
*193 _0174_
*194 _0175_
*195 _0176_
*196 _0177_
*197 _0178_
*198 _0179_
*199 _0180_
*200 _0181_
*201 _0182_
*202 _0183_
*203 _0184_
*204 _0185_
*205 _0186_
*206 _0187_
*207 _0188_
*208 _0189_
*209 _0190_
*210 _0191_
*211 _0192_
*212 _0193_
*213 _0194_
*214 _0195_
*215 _0196_
*216 _0197_
*217 _0198_
*218 _0199_
*219 _0200_
*220 _0201_
*221 _0202_
*222 _0203_
*223 _0204_
*224 _0205_
*225 _0206_
*226 _0207_
*227 _0208_
*228 _0209_
*229 _0210_
*230 _0211_
*231 _0212_
*232 _0213_
*233 _0214_
*234 _0215_
*235 _0216_
*236 _0217_
*237 _0218_
*238 _0219_
*239 _0220_
*240 _0221_
*241 _0222_
*242 _0223_
*243 _0224_
*244 _0225_
*245 _0226_
*246 _0227_
*247 _0228_
*248 _0229_
*249 _0230_
*250 _0231_
*251 _0232_
*252 _0233_
*253 _0234_
*254 _0235_
*255 _0236_
*256 _0237_
*257 _0238_
*258 _0239_
*259 _0240_
*260 _0241_
*261 _0242_
*262 _0243_
*263 _0244_
*264 _0245_
*265 _0246_
*266 _0247_
*267 _0248_
*268 _0249_
*269 _0250_
*270 _0251_
*271 _0252_
*272 _0253_
*273 _0254_
*274 _0255_
*275 _0256_
*276 _0257_
*277 _0258_
*278 _0259_
*279 _0260_
*280 _0261_
*281 _0262_
*282 _0263_
*283 _0264_
*284 _0265_
*285 _0266_
*286 _0267_
*287 _0268_
*288 _0269_
*289 _0270_
*290 _0271_
*291 _0272_
*292 _0273_
*293 _0274_
*294 _0275_
*295 _0276_
*296 _0277_
*297 _0278_
*298 _0279_
*299 _0280_
*300 _0281_
*301 _0282_
*302 _0283_
*303 _0284_
*304 _0285_
*305 _0286_
*306 _0287_
*307 _0288_
*308 _0289_
*309 _0290_
*310 _0291_
*311 _0292_
*312 _0293_
*313 _0294_
*314 _0295_
*315 _0296_
*316 _0297_
*317 _0298_
*318 _0299_
*319 _0300_
*320 _0301_
*321 _0302_
*322 _0303_
*323 _0304_
*324 _0305_
*325 _0306_
*326 _0307_
*327 _0308_
*328 _0309_
*329 _0310_
*330 _0311_
*331 _0312_
*332 _0313_
*333 _0314_
*334 _0315_
*335 _0316_
*336 _0317_
*337 _0318_
*338 _0319_
*339 _0320_
*340 _0321_
*341 _0322_
*342 _0323_
*343 _0324_
*344 _0325_
*345 _0326_
*346 _0327_
*347 _0328_
*348 _0329_
*349 _0330_
*350 _0331_
*351 _0332_
*352 _0333_
*353 _0334_
*354 _0335_
*355 _0336_
*356 _0337_
*357 _0338_
*358 _0339_
*359 _0340_
*360 _0341_
*361 _0342_
*362 _0343_
*363 _0344_
*364 _0345_
*365 _0346_
*366 _0347_
*367 _0348_
*368 _0349_
*369 _0350_
*370 _0351_
*371 _0352_
*372 _0353_
*373 _0354_
*374 _0355_
*375 _0356_
*376 _0357_
*377 _0358_
*378 _0359_
*379 _0360_
*380 _0361_
*381 _0362_
*382 _0363_
*383 _0364_
*384 _0365_
*385 _0366_
*386 _0367_
*387 _0368_
*388 _0369_
*389 _0370_
*390 _0371_
*391 _0372_
*392 _0373_
*393 _0374_
*394 _0375_
*395 _0376_
*396 _0377_
*397 _0378_
*398 _0379_
*399 _0380_
*400 _0381_
*401 _0382_
*402 _0383_
*403 _0384_
*404 _0385_
*405 _0386_
*406 _0387_
*407 _0388_
*408 _0389_
*409 _0390_
*410 _0391_
*411 _0392_
*412 _0393_
*413 _0394_
*414 _0395_
*415 _0396_
*416 _0397_
*417 _0398_
*418 _0399_
*419 _0400_
*420 _0401_
*421 _0402_
*422 _0403_
*423 _0404_
*424 _0405_
*425 _0406_
*426 _0407_
*427 _0408_
*428 _0409_
*429 _0410_
*430 _0411_
*431 _0412_
*432 _0413_
*433 _0414_
*434 _0415_
*435 _0416_
*436 _0417_
*437 _0418_
*438 _0419_
*439 _0420_
*440 _0421_
*441 _0422_
*442 _0423_
*443 _0424_
*444 _0425_
*445 _0426_
*446 _0427_
*447 _0428_
*448 _0429_
*449 _0430_
*450 _0431_
*451 _0432_
*452 _0433_
*453 _0434_
*454 _0435_
*455 _0436_
*456 _0437_
*457 _0438_
*458 _0439_
*459 _0440_
*460 _0441_
*461 _0442_
*462 _0443_
*463 _0444_
*464 _0445_
*465 _0446_
*466 _0447_
*467 _0448_
*468 _0449_
*469 _0450_
*470 _0451_
*471 _0452_
*472 _0453_
*473 _0454_
*474 _0455_
*475 _0456_
*476 _0457_
*477 _0458_
*478 _0459_
*479 _0460_
*480 _0461_
*481 _0462_
*482 _0463_
*483 _0464_
*484 _0465_
*485 _0466_
*486 _0467_
*487 _0468_
*488 _0469_
*489 _0470_
*490 _0471_
*491 _0472_
*492 _0473_
*493 _0474_
*494 _0475_
*495 _0476_
*496 _0477_
*497 _0478_
*498 _0479_
*499 _0480_
*500 _0481_
*501 _0482_
*502 _0483_
*503 _0484_
*504 _0485_
*505 _0486_
*506 _0487_
*507 _0488_
*508 _0489_
*509 _0490_
*510 _0491_
*511 _0492_
*512 _0493_
*513 _0494_
*514 _0495_
*515 _0496_
*516 _0497_
*517 _0498_
*518 _0499_
*519 _0500_
*520 _0501_
*521 _0502_
*522 _0503_
*523 _0504_
*524 _0505_
*525 _0506_
*526 _0507_
*527 _0508_
*528 _0509_
*529 _0510_
*530 _0511_
*531 _0512_
*532 _0513_
*533 _0514_
*534 _0515_
*535 _0516_
*536 _0517_
*537 _0518_
*538 _0519_
*539 _0520_
*540 _0521_
*541 _0522_
*542 _0523_
*543 _0524_
*544 _0525_
*545 _0526_
*546 _0527_
*547 _0528_
*548 _0529_
*549 _0530_
*550 _0531_
*551 _0532_
*552 _0533_
*553 _0534_
*554 _0535_
*555 _0536_
*556 _0537_
*557 _0538_
*558 _0539_
*559 _0540_
*560 _0541_
*561 _0542_
*562 _0543_
*563 _0544_
*564 _0545_
*565 _0546_
*566 _0547_
*567 _0548_
*568 _0549_
*569 _0550_
*570 _0551_
*571 _0552_
*572 _0553_
*573 _0554_
*574 _0555_
*575 _0556_
*576 _0557_
*577 _0558_
*578 _0559_
*579 _0560_
*580 _0561_
*581 _0562_
*582 _0563_
*583 _0564_
*584 _0565_
*585 _0566_
*586 _0567_
*587 _0568_
*588 _0569_
*589 _0570_
*590 _0571_
*591 _0572_
*592 _0573_
*593 _0574_
*594 _0575_
*595 _0576_
*596 _0577_
*597 _0578_
*598 _0579_
*599 _0580_
*600 _0581_
*601 _0582_
*602 _0583_
*603 _0584_
*604 _0585_
*605 _0586_
*606 _0587_
*607 _0588_
*608 _0589_
*609 _0590_
*610 _0591_
*611 _0592_
*612 _0593_
*613 _0594_
*614 _0595_
*615 _0596_
*616 _0597_
*617 _0598_
*618 _0599_
*619 _0600_
*620 _0601_
*621 _0602_
*622 _0603_
*623 _0604_
*624 _0605_
*625 _0606_
*626 _0607_
*627 _0608_
*628 _0609_
*629 _0610_
*630 _0611_
*631 _0612_
*632 _0613_
*633 _0614_
*634 _0615_
*635 _0616_
*636 _0617_
*637 _0618_
*638 _0619_
*639 _0620_
*640 _0621_
*641 _0622_
*642 _0623_
*643 _0624_
*644 _0625_
*645 _0626_
*646 _0627_
*647 _0628_
*648 _0629_
*649 _0630_
*650 _0631_
*651 _0632_
*652 _0633_
*653 _0634_
*654 _0635_
*655 _0636_
*656 _0637_
*657 _0638_
*658 _0639_
*659 _0640_
*660 _0641_
*661 _0642_
*662 _0643_
*663 _0644_
*664 _0645_
*665 _0646_
*666 _0647_
*667 _0648_
*668 _0649_
*669 _0650_
*670 _0651_
*671 _0652_
*672 _0653_
*673 _0654_
*674 _0655_
*675 _0656_
*676 _0657_
*677 _0658_
*678 _0659_
*679 _0660_
*680 _0661_
*681 _0662_
*682 _0663_
*683 _0664_
*684 _0665_
*685 _0666_
*686 _0667_
*687 _0668_
*688 _0669_
*689 _0670_
*690 _0671_
*691 _0672_
*692 _0673_
*693 _0674_
*694 _0675_
*695 _0676_
*696 _0677_
*697 _0678_
*698 _0679_
*699 _0680_
*700 _0681_
*701 _0682_
*702 _0683_
*703 _0684_
*704 _0685_
*705 _0686_
*706 _0687_
*707 _0688_
*708 _0689_
*709 _0690_
*710 _0691_
*711 _0692_
*712 _0693_
*713 _0694_
*714 _0695_
*715 _0696_
*716 _0697_
*717 _0698_
*718 _0699_
*719 _0700_
*720 _0701_
*721 _0702_
*722 _0703_
*723 _0704_
*724 _0705_
*725 _0706_
*726 _0707_
*727 _0708_
*728 _0709_
*729 _0710_
*730 _0711_
*731 _0712_
*732 _0713_
*733 _0714_
*734 _0715_
*735 _0716_
*736 _0717_
*737 _0718_
*738 _0719_
*739 _0720_
*740 _0721_
*741 _0722_
*742 _0723_
*743 _0724_
*744 _0725_
*745 _0726_
*746 _0727_
*747 _0728_
*748 _0729_
*749 _0730_
*750 _0731_
*751 _0732_
*752 _0733_
*753 _0734_
*754 _0735_
*755 _0736_
*756 _0737_
*757 _0738_
*758 _0739_
*759 _0740_
*760 _0741_
*761 _0742_
*762 _0743_
*763 _0744_
*764 _0745_
*765 _0746_
*766 _0747_
*767 _0748_
*768 _0749_
*769 _0750_
*770 _0751_
*771 _0752_
*772 _0753_
*773 _0754_
*774 _0755_
*775 _0756_
*776 _0757_
*777 _0758_
*778 _0759_
*779 _0760_
*780 _0761_
*781 _0762_
*782 _0763_
*783 _0764_
*784 _0765_
*785 _0766_
*786 _0767_
*787 _0768_
*788 _0769_
*789 _0770_
*790 _0771_
*791 _0772_
*792 _0773_
*793 _0774_
*794 _0775_
*795 _0776_
*796 _0777_
*797 _0778_
*798 _0779_
*799 _0780_
*800 _0781_
*801 _0782_
*802 _0783_
*803 _0784_
*804 _0785_
*805 _0786_
*806 _0787_
*807 _0788_
*808 _0789_
*809 _0790_
*810 _0791_
*811 _0792_
*812 _0793_
*813 _0794_
*814 _0795_
*815 _0796_
*816 _0797_
*817 _0798_
*818 _0799_
*819 _0800_
*820 _0801_
*821 _0802_
*822 _0803_
*823 _0804_
*824 _0805_
*825 _0806_
*826 _0807_
*827 _0808_
*828 _0809_
*829 _0810_
*830 _0811_
*831 _0812_
*832 _0813_
*833 _0814_
*834 _0815_
*835 _0816_
*836 _0817_
*837 _0818_
*838 _0819_
*839 _0820_
*840 _0821_
*841 _0822_
*842 _0823_
*843 _0824_
*844 _0825_
*845 _0826_
*846 _0827_
*847 _0828_
*848 _0829_
*849 _0830_
*850 _0831_
*851 _0832_
*852 _0833_
*853 _0834_
*854 _0835_
*855 _0836_
*856 _0837_
*857 _0838_
*858 _0839_
*859 _0840_
*860 _0841_
*861 _0842_
*862 _0843_
*863 _0844_
*864 _0845_
*865 _0846_
*866 _0847_
*867 _0848_
*868 _0849_
*869 _0850_
*870 _0851_
*871 _0852_
*872 _0853_
*873 _0854_
*874 _0855_
*875 _0856_
*876 _0857_
*877 _0858_
*878 _0859_
*879 _0860_
*880 _0861_
*881 _0862_
*882 _0863_
*883 _0864_
*884 _0865_
*885 _0866_
*886 _0867_
*887 _0868_
*888 _0869_
*889 _0870_
*890 _0871_
*891 _0872_
*892 _0873_
*893 _0874_
*894 _0875_
*895 _0876_
*896 _0877_
*897 _0878_
*898 _0879_
*899 _0880_
*900 _0881_
*901 _0882_
*902 _0883_
*903 _0884_
*904 _0885_
*905 _0886_
*906 _0887_
*907 _0888_
*908 _0889_
*909 _0890_
*910 _0891_
*911 _0892_
*912 _0893_
*913 _0894_
*914 _0895_
*915 buffer\[0\]
*916 buffer\[100\]
*917 buffer\[101\]
*918 buffer\[102\]
*919 buffer\[103\]
*920 buffer\[104\]
*921 buffer\[105\]
*922 buffer\[106\]
*923 buffer\[107\]
*924 buffer\[108\]
*925 buffer\[109\]
*926 buffer\[10\]
*927 buffer\[110\]
*928 buffer\[111\]
*929 buffer\[112\]
*930 buffer\[113\]
*931 buffer\[114\]
*932 buffer\[115\]
*933 buffer\[116\]
*934 buffer\[117\]
*935 buffer\[118\]
*936 buffer\[119\]
*937 buffer\[11\]
*938 buffer\[120\]
*939 buffer\[121\]
*940 buffer\[122\]
*941 buffer\[123\]
*942 buffer\[124\]
*943 buffer\[125\]
*944 buffer\[126\]
*945 buffer\[127\]
*946 buffer\[128\]
*947 buffer\[129\]
*948 buffer\[12\]
*949 buffer\[130\]
*950 buffer\[131\]
*951 buffer\[132\]
*952 buffer\[133\]
*953 buffer\[134\]
*954 buffer\[135\]
*955 buffer\[136\]
*956 buffer\[137\]
*957 buffer\[138\]
*958 buffer\[139\]
*959 buffer\[13\]
*960 buffer\[140\]
*961 buffer\[141\]
*962 buffer\[142\]
*963 buffer\[143\]
*964 buffer\[144\]
*965 buffer\[145\]
*966 buffer\[146\]
*967 buffer\[147\]
*968 buffer\[148\]
*969 buffer\[149\]
*970 buffer\[14\]
*971 buffer\[150\]
*972 buffer\[151\]
*973 buffer\[152\]
*974 buffer\[153\]
*975 buffer\[154\]
*976 buffer\[155\]
*977 buffer\[156\]
*978 buffer\[157\]
*979 buffer\[158\]
*980 buffer\[159\]
*981 buffer\[15\]
*982 buffer\[160\]
*983 buffer\[161\]
*984 buffer\[162\]
*985 buffer\[163\]
*986 buffer\[164\]
*987 buffer\[165\]
*988 buffer\[166\]
*989 buffer\[167\]
*990 buffer\[168\]
*991 buffer\[169\]
*992 buffer\[16\]
*993 buffer\[170\]
*994 buffer\[171\]
*995 buffer\[172\]
*996 buffer\[173\]
*997 buffer\[174\]
*998 buffer\[175\]
*999 buffer\[176\]
*1000 buffer\[177\]
*1001 buffer\[178\]
*1002 buffer\[179\]
*1003 buffer\[17\]
*1004 buffer\[180\]
*1005 buffer\[181\]
*1006 buffer\[182\]
*1007 buffer\[183\]
*1008 buffer\[184\]
*1009 buffer\[185\]
*1010 buffer\[186\]
*1011 buffer\[187\]
*1012 buffer\[188\]
*1013 buffer\[189\]
*1014 buffer\[18\]
*1015 buffer\[190\]
*1016 buffer\[191\]
*1017 buffer\[192\]
*1018 buffer\[193\]
*1019 buffer\[194\]
*1020 buffer\[195\]
*1021 buffer\[196\]
*1022 buffer\[197\]
*1023 buffer\[198\]
*1024 buffer\[199\]
*1025 buffer\[19\]
*1026 buffer\[1\]
*1027 buffer\[200\]
*1028 buffer\[201\]
*1029 buffer\[202\]
*1030 buffer\[203\]
*1031 buffer\[204\]
*1032 buffer\[205\]
*1033 buffer\[206\]
*1034 buffer\[207\]
*1035 buffer\[208\]
*1036 buffer\[209\]
*1037 buffer\[20\]
*1038 buffer\[21\]
*1039 buffer\[22\]
*1040 buffer\[23\]
*1041 buffer\[24\]
*1042 buffer\[25\]
*1043 buffer\[26\]
*1044 buffer\[27\]
*1045 buffer\[28\]
*1046 buffer\[29\]
*1047 buffer\[2\]
*1048 buffer\[30\]
*1049 buffer\[31\]
*1050 buffer\[32\]
*1051 buffer\[33\]
*1052 buffer\[34\]
*1053 buffer\[35\]
*1054 buffer\[36\]
*1055 buffer\[37\]
*1056 buffer\[38\]
*1057 buffer\[39\]
*1058 buffer\[3\]
*1059 buffer\[40\]
*1060 buffer\[41\]
*1061 buffer\[42\]
*1062 buffer\[43\]
*1063 buffer\[44\]
*1064 buffer\[45\]
*1065 buffer\[46\]
*1066 buffer\[47\]
*1067 buffer\[48\]
*1068 buffer\[49\]
*1069 buffer\[4\]
*1070 buffer\[50\]
*1071 buffer\[51\]
*1072 buffer\[52\]
*1073 buffer\[53\]
*1074 buffer\[54\]
*1075 buffer\[55\]
*1076 buffer\[56\]
*1077 buffer\[57\]
*1078 buffer\[58\]
*1079 buffer\[59\]
*1080 buffer\[5\]
*1081 buffer\[60\]
*1082 buffer\[61\]
*1083 buffer\[62\]
*1084 buffer\[63\]
*1085 buffer\[64\]
*1086 buffer\[65\]
*1087 buffer\[66\]
*1088 buffer\[67\]
*1089 buffer\[68\]
*1090 buffer\[69\]
*1091 buffer\[6\]
*1092 buffer\[70\]
*1093 buffer\[71\]
*1094 buffer\[72\]
*1095 buffer\[73\]
*1096 buffer\[74\]
*1097 buffer\[75\]
*1098 buffer\[76\]
*1099 buffer\[77\]
*1100 buffer\[78\]
*1101 buffer\[79\]
*1102 buffer\[7\]
*1103 buffer\[80\]
*1104 buffer\[81\]
*1105 buffer\[82\]
*1106 buffer\[83\]
*1107 buffer\[84\]
*1108 buffer\[85\]
*1109 buffer\[86\]
*1110 buffer\[87\]
*1111 buffer\[88\]
*1112 buffer\[89\]
*1113 buffer\[8\]
*1114 buffer\[90\]
*1115 buffer\[91\]
*1116 buffer\[92\]
*1117 buffer\[93\]
*1118 buffer\[94\]
*1119 buffer\[95\]
*1120 buffer\[96\]
*1121 buffer\[97\]
*1122 buffer\[98\]
*1123 buffer\[99\]
*1124 buffer\[9\]
*1125 clknet_0_io_in[0]
*1126 clknet_1_0__leaf_io_in[0]
*1127 clknet_1_1__leaf_io_in[0]
*1128 clknet_leaf_0_io_in[0]
*1129 clknet_leaf_10_io_in[0]
*1130 clknet_leaf_11_io_in[0]
*1131 clknet_leaf_12_io_in[0]
*1132 clknet_leaf_13_io_in[0]
*1133 clknet_leaf_14_io_in[0]
*1134 clknet_leaf_15_io_in[0]
*1135 clknet_leaf_16_io_in[0]
*1136 clknet_leaf_17_io_in[0]
*1137 clknet_leaf_18_io_in[0]
*1138 clknet_leaf_19_io_in[0]
*1139 clknet_leaf_1_io_in[0]
*1140 clknet_leaf_20_io_in[0]
*1141 clknet_leaf_2_io_in[0]
*1142 clknet_leaf_3_io_in[0]
*1143 clknet_leaf_4_io_in[0]
*1144 clknet_leaf_5_io_in[0]
*1145 clknet_leaf_6_io_in[0]
*1146 clknet_leaf_7_io_in[0]
*1147 clknet_leaf_8_io_in[0]
*1148 clknet_leaf_9_io_in[0]
*1149 counter\[0\]
*1150 counter\[1\]
*1151 counter\[2\]
*1152 net1
*1153 net2
*1154 net3
*1155 net4
*1156 net5
*1157 ANTENNA_0
*1158 ANTENNA_1
*1159 FILLER_0_108
*1160 FILLER_0_116
*1161 FILLER_0_136
*1162 FILLER_0_141
*1163 FILLER_0_149
*1164 FILLER_0_155
*1165 FILLER_0_167
*1166 FILLER_0_172
*1167 FILLER_0_180
*1168 FILLER_0_19
*1169 FILLER_0_192
*1170 FILLER_0_197
*1171 FILLER_0_205
*1172 FILLER_0_209
*1173 FILLER_0_221
*1174 FILLER_0_234
*1175 FILLER_0_246
*1176 FILLER_0_256
*1177 FILLER_0_268
*1178 FILLER_0_27
*1179 FILLER_0_281
*1180 FILLER_0_293
*1181 FILLER_0_38
*1182 FILLER_0_42
*1183 FILLER_0_52
*1184 FILLER_0_60
*1185 FILLER_0_68
*1186 FILLER_0_73
*1187 FILLER_0_80
*1188 FILLER_0_94
*1189 FILLER_0_98
*1190 FILLER_10_109
*1191 FILLER_10_129
*1192 FILLER_10_136
*1193 FILLER_10_144
*1194 FILLER_10_164
*1195 FILLER_10_186
*1196 FILLER_10_194
*1197 FILLER_10_197
*1198 FILLER_10_205
*1199 FILLER_10_213
*1200 FILLER_10_221
*1201 FILLER_10_23
*1202 FILLER_10_231
*1203 FILLER_10_239
*1204 FILLER_10_247
*1205 FILLER_10_251
*1206 FILLER_10_262
*1207 FILLER_10_27
*1208 FILLER_10_282
*1209 FILLER_10_295
*1210 FILLER_10_3
*1211 FILLER_10_38
*1212 FILLER_10_46
*1213 FILLER_10_64
*1214 FILLER_10_77
*1215 FILLER_10_83
*1216 FILLER_10_85
*1217 FILLER_10_89
*1218 FILLER_10_94
*1219 FILLER_11_100
*1220 FILLER_11_107
*1221 FILLER_11_111
*1222 FILLER_11_113
*1223 FILLER_11_121
*1224 FILLER_11_145
*1225 FILLER_11_15
*1226 FILLER_11_158
*1227 FILLER_11_166
*1228 FILLER_11_169
*1229 FILLER_11_177
*1230 FILLER_11_184
*1231 FILLER_11_199
*1232 FILLER_11_214
*1233 FILLER_11_222
*1234 FILLER_11_241
*1235 FILLER_11_249
*1236 FILLER_11_255
*1237 FILLER_11_276
*1238 FILLER_11_290
*1239 FILLER_11_298
*1240 FILLER_11_3
*1241 FILLER_11_35
*1242 FILLER_11_43
*1243 FILLER_11_49
*1244 FILLER_11_55
*1245 FILLER_11_57
*1246 FILLER_11_61
*1247 FILLER_11_76
*1248 FILLER_11_8
*1249 FILLER_12_116
*1250 FILLER_12_122
*1251 FILLER_12_132
*1252 FILLER_12_141
*1253 FILLER_12_152
*1254 FILLER_12_165
*1255 FILLER_12_177
*1256 FILLER_12_182
*1257 FILLER_12_188
*1258 FILLER_12_19
*1259 FILLER_12_192
*1260 FILLER_12_213
*1261 FILLER_12_233
*1262 FILLER_12_246
*1263 FILLER_12_253
*1264 FILLER_12_27
*1265 FILLER_12_275
*1266 FILLER_12_29
*1267 FILLER_12_295
*1268 FILLER_12_37
*1269 FILLER_12_59
*1270 FILLER_12_63
*1271 FILLER_12_80
*1272 FILLER_12_94
*1273 FILLER_13_108
*1274 FILLER_13_113
*1275 FILLER_13_119
*1276 FILLER_13_139
*1277 FILLER_13_152
*1278 FILLER_13_160
*1279 FILLER_13_164
*1280 FILLER_13_17
*1281 FILLER_13_185
*1282 FILLER_13_197
*1283 FILLER_13_205
*1284 FILLER_13_209
*1285 FILLER_13_221
*1286 FILLER_13_228
*1287 FILLER_13_236
*1288 FILLER_13_24
*1289 FILLER_13_253
*1290 FILLER_13_273
*1291 FILLER_13_279
*1292 FILLER_13_28
*1293 FILLER_13_284
*1294 FILLER_13_291
*1295 FILLER_13_3
*1296 FILLER_13_38
*1297 FILLER_13_42
*1298 FILLER_13_52
*1299 FILLER_13_57
*1300 FILLER_13_65
*1301 FILLER_13_7
*1302 FILLER_13_71
*1303 FILLER_13_75
*1304 FILLER_13_83
*1305 FILLER_13_88
*1306 FILLER_13_95
*1307 FILLER_14_105
*1308 FILLER_14_113
*1309 FILLER_14_120
*1310 FILLER_14_128
*1311 FILLER_14_132
*1312 FILLER_14_136
*1313 FILLER_14_141
*1314 FILLER_14_159
*1315 FILLER_14_172
*1316 FILLER_14_19
*1317 FILLER_14_192
*1318 FILLER_14_197
*1319 FILLER_14_207
*1320 FILLER_14_219
*1321 FILLER_14_227
*1322 FILLER_14_232
*1323 FILLER_14_245
*1324 FILLER_14_251
*1325 FILLER_14_253
*1326 FILLER_14_257
*1327 FILLER_14_265
*1328 FILLER_14_269
*1329 FILLER_14_27
*1330 FILLER_14_289
*1331 FILLER_14_29
*1332 FILLER_14_297
*1333 FILLER_14_33
*1334 FILLER_14_46
*1335 FILLER_14_53
*1336 FILLER_14_61
*1337 FILLER_14_66
*1338 FILLER_14_79
*1339 FILLER_14_83
*1340 FILLER_14_85
*1341 FILLER_14_91
*1342 FILLER_15_102
*1343 FILLER_15_110
*1344 FILLER_15_116
*1345 FILLER_15_12
*1346 FILLER_15_129
*1347 FILLER_15_157
*1348 FILLER_15_164
*1349 FILLER_15_178
*1350 FILLER_15_191
*1351 FILLER_15_211
*1352 FILLER_15_218
*1353 FILLER_15_225
*1354 FILLER_15_238
*1355 FILLER_15_259
*1356 FILLER_15_265
*1357 FILLER_15_275
*1358 FILLER_15_279
*1359 FILLER_15_281
*1360 FILLER_15_294
*1361 FILLER_15_298
*1362 FILLER_15_3
*1363 FILLER_15_32
*1364 FILLER_15_52
*1365 FILLER_15_73
*1366 FILLER_15_81
*1367 FILLER_15_85
*1368 FILLER_16_116
*1369 FILLER_16_136
*1370 FILLER_16_14
*1371 FILLER_16_157
*1372 FILLER_16_161
*1373 FILLER_16_178
*1374 FILLER_16_185
*1375 FILLER_16_193
*1376 FILLER_16_200
*1377 FILLER_16_207
*1378 FILLER_16_211
*1379 FILLER_16_228
*1380 FILLER_16_24
*1381 FILLER_16_248
*1382 FILLER_16_269
*1383 FILLER_16_277
*1384 FILLER_16_29
*1385 FILLER_16_295
*1386 FILLER_16_53
*1387 FILLER_16_57
*1388 FILLER_16_6
*1389 FILLER_16_67
*1390 FILLER_16_74
*1391 FILLER_16_82
*1392 FILLER_16_94
*1393 FILLER_17_103
*1394 FILLER_17_111
*1395 FILLER_17_122
*1396 FILLER_17_128
*1397 FILLER_17_149
*1398 FILLER_17_156
*1399 FILLER_17_169
*1400 FILLER_17_191
*1401 FILLER_17_204
*1402 FILLER_17_21
*1403 FILLER_17_210
*1404 FILLER_17_220
*1405 FILLER_17_225
*1406 FILLER_17_232
*1407 FILLER_17_238
*1408 FILLER_17_248
*1409 FILLER_17_25
*1410 FILLER_17_255
*1411 FILLER_17_259
*1412 FILLER_17_276
*1413 FILLER_17_29
*1414 FILLER_17_290
*1415 FILLER_17_298
*1416 FILLER_17_3
*1417 FILLER_17_42
*1418 FILLER_17_48
*1419 FILLER_17_52
*1420 FILLER_17_66
*1421 FILLER_17_70
*1422 FILLER_17_8
*1423 FILLER_17_87
*1424 FILLER_17_94
*1425 FILLER_17_98
*1426 FILLER_18_103
*1427 FILLER_18_110
*1428 FILLER_18_114
*1429 FILLER_18_118
*1430 FILLER_18_131
*1431 FILLER_18_139
*1432 FILLER_18_141
*1433 FILLER_18_152
*1434 FILLER_18_158
*1435 FILLER_18_17
*1436 FILLER_18_175
*1437 FILLER_18_188
*1438 FILLER_18_213
*1439 FILLER_18_226
*1440 FILLER_18_239
*1441 FILLER_18_24
*1442 FILLER_18_246
*1443 FILLER_18_256
*1444 FILLER_18_276
*1445 FILLER_18_284
*1446 FILLER_18_29
*1447 FILLER_18_294
*1448 FILLER_18_298
*1449 FILLER_18_3
*1450 FILLER_18_34
*1451 FILLER_18_47
*1452 FILLER_18_7
*1453 FILLER_18_71
*1454 FILLER_18_79
*1455 FILLER_18_83
*1456 FILLER_18_88
*1457 FILLER_18_92
*1458 FILLER_18_96
*1459 FILLER_19_108
*1460 FILLER_19_116
*1461 FILLER_19_120
*1462 FILLER_19_137
*1463 FILLER_19_143
*1464 FILLER_19_164
*1465 FILLER_19_172
*1466 FILLER_19_180
*1467 FILLER_19_19
*1468 FILLER_19_198
*1469 FILLER_19_220
*1470 FILLER_19_228
*1471 FILLER_19_234
*1472 FILLER_19_251
*1473 FILLER_19_271
*1474 FILLER_19_279
*1475 FILLER_19_290
*1476 FILLER_19_298
*1477 FILLER_19_32
*1478 FILLER_19_52
*1479 FILLER_19_57
*1480 FILLER_19_64
*1481 FILLER_19_77
*1482 FILLER_19_81
*1483 FILLER_19_86
*1484 FILLER_1_102
*1485 FILLER_1_11
*1486 FILLER_1_110
*1487 FILLER_1_113
*1488 FILLER_1_124
*1489 FILLER_1_144
*1490 FILLER_1_15
*1491 FILLER_1_164
*1492 FILLER_1_185
*1493 FILLER_1_205
*1494 FILLER_1_218
*1495 FILLER_1_225
*1496 FILLER_1_242
*1497 FILLER_1_262
*1498 FILLER_1_274
*1499 FILLER_1_281
*1500 FILLER_1_293
*1501 FILLER_1_3
*1502 FILLER_1_32
*1503 FILLER_1_52
*1504 FILLER_1_60
*1505 FILLER_1_82
*1506 FILLER_20_101
*1507 FILLER_20_108
*1508 FILLER_20_128
*1509 FILLER_20_135
*1510 FILLER_20_139
*1511 FILLER_20_141
*1512 FILLER_20_149
*1513 FILLER_20_159
*1514 FILLER_20_174
*1515 FILLER_20_186
*1516 FILLER_20_194
*1517 FILLER_20_197
*1518 FILLER_20_212
*1519 FILLER_20_22
*1520 FILLER_20_236
*1521 FILLER_20_244
*1522 FILLER_20_248
*1523 FILLER_20_253
*1524 FILLER_20_265
*1525 FILLER_20_271
*1526 FILLER_20_29
*1527 FILLER_20_292
*1528 FILLER_20_298
*1529 FILLER_20_3
*1530 FILLER_20_41
*1531 FILLER_20_49
*1532 FILLER_20_56
*1533 FILLER_20_80
*1534 FILLER_20_9
*1535 FILLER_21_108
*1536 FILLER_21_11
*1537 FILLER_21_113
*1538 FILLER_21_117
*1539 FILLER_21_121
*1540 FILLER_21_132
*1541 FILLER_21_154
*1542 FILLER_21_163
*1543 FILLER_21_167
*1544 FILLER_21_169
*1545 FILLER_21_181
*1546 FILLER_21_188
*1547 FILLER_21_201
*1548 FILLER_21_208
*1549 FILLER_21_22
*1550 FILLER_21_220
*1551 FILLER_21_225
*1552 FILLER_21_237
*1553 FILLER_21_250
*1554 FILLER_21_263
*1555 FILLER_21_270
*1556 FILLER_21_278
*1557 FILLER_21_28
*1558 FILLER_21_284
*1559 FILLER_21_291
*1560 FILLER_21_3
*1561 FILLER_21_39
*1562 FILLER_21_47
*1563 FILLER_21_52
*1564 FILLER_21_57
*1565 FILLER_21_7
*1566 FILLER_21_74
*1567 FILLER_21_80
*1568 FILLER_21_90
*1569 FILLER_21_98
*1570 FILLER_22_105
*1571 FILLER_22_115
*1572 FILLER_22_122
*1573 FILLER_22_126
*1574 FILLER_22_136
*1575 FILLER_22_141
*1576 FILLER_22_146
*1577 FILLER_22_154
*1578 FILLER_22_17
*1579 FILLER_22_171
*1580 FILLER_22_191
*1581 FILLER_22_195
*1582 FILLER_22_197
*1583 FILLER_22_215
*1584 FILLER_22_224
*1585 FILLER_22_237
*1586 FILLER_22_24
*1587 FILLER_22_244
*1588 FILLER_22_253
*1589 FILLER_22_259
*1590 FILLER_22_276
*1591 FILLER_22_287
*1592 FILLER_22_294
*1593 FILLER_22_298
*1594 FILLER_22_3
*1595 FILLER_22_35
*1596 FILLER_22_59
*1597 FILLER_22_67
*1598 FILLER_22_7
*1599 FILLER_22_75
*1600 FILLER_22_80
*1601 FILLER_22_85
*1602 FILLER_22_97
*1603 FILLER_23_100
*1604 FILLER_23_104
*1605 FILLER_23_108
*1606 FILLER_23_116
*1607 FILLER_23_12
*1608 FILLER_23_136
*1609 FILLER_23_143
*1610 FILLER_23_147
*1611 FILLER_23_157
*1612 FILLER_23_165
*1613 FILLER_23_178
*1614 FILLER_23_191
*1615 FILLER_23_198
*1616 FILLER_23_202
*1617 FILLER_23_212
*1618 FILLER_23_216
*1619 FILLER_23_22
*1620 FILLER_23_220
*1621 FILLER_23_241
*1622 FILLER_23_261
*1623 FILLER_23_265
*1624 FILLER_23_275
*1625 FILLER_23_279
*1626 FILLER_23_28
*1627 FILLER_23_281
*1628 FILLER_23_285
*1629 FILLER_23_295
*1630 FILLER_23_37
*1631 FILLER_23_49
*1632 FILLER_23_55
*1633 FILLER_23_57
*1634 FILLER_23_6
*1635 FILLER_23_65
*1636 FILLER_23_69
*1637 FILLER_23_73
*1638 FILLER_23_87
*1639 FILLER_24_101
*1640 FILLER_24_115
*1641 FILLER_24_123
*1642 FILLER_24_134
*1643 FILLER_24_141
*1644 FILLER_24_157
*1645 FILLER_24_170
*1646 FILLER_24_178
*1647 FILLER_24_185
*1648 FILLER_24_19
*1649 FILLER_24_193
*1650 FILLER_24_206
*1651 FILLER_24_238
*1652 FILLER_24_244
*1653 FILLER_24_248
*1654 FILLER_24_269
*1655 FILLER_24_27
*1656 FILLER_24_277
*1657 FILLER_24_29
*1658 FILLER_24_295
*1659 FILLER_24_35
*1660 FILLER_24_59
*1661 FILLER_24_66
*1662 FILLER_24_70
*1663 FILLER_24_80
*1664 FILLER_24_85
*1665 FILLER_25_101
*1666 FILLER_25_108
*1667 FILLER_25_12
*1668 FILLER_25_122
*1669 FILLER_25_129
*1670 FILLER_25_153
*1671 FILLER_25_159
*1672 FILLER_25_164
*1673 FILLER_25_169
*1674 FILLER_25_173
*1675 FILLER_25_190
*1676 FILLER_25_210
*1677 FILLER_25_217
*1678 FILLER_25_223
*1679 FILLER_25_241
*1680 FILLER_25_254
*1681 FILLER_25_267
*1682 FILLER_25_275
*1683 FILLER_25_279
*1684 FILLER_25_290
*1685 FILLER_25_298
*1686 FILLER_25_3
*1687 FILLER_25_36
*1688 FILLER_25_47
*1689 FILLER_25_55
*1690 FILLER_25_57
*1691 FILLER_25_64
*1692 FILLER_25_76
*1693 FILLER_25_89
*1694 FILLER_25_97
*1695 FILLER_26_105
*1696 FILLER_26_119
*1697 FILLER_26_128
*1698 FILLER_26_135
*1699 FILLER_26_139
*1700 FILLER_26_144
*1701 FILLER_26_168
*1702 FILLER_26_175
*1703 FILLER_26_181
*1704 FILLER_26_191
*1705 FILLER_26_195
*1706 FILLER_26_197
*1707 FILLER_26_219
*1708 FILLER_26_225
*1709 FILLER_26_235
*1710 FILLER_26_24
*1711 FILLER_26_243
*1712 FILLER_26_248
*1713 FILLER_26_257
*1714 FILLER_26_265
*1715 FILLER_26_287
*1716 FILLER_26_29
*1717 FILLER_26_294
*1718 FILLER_26_298
*1719 FILLER_26_3
*1720 FILLER_26_33
*1721 FILLER_26_42
*1722 FILLER_26_51
*1723 FILLER_26_55
*1724 FILLER_26_66
*1725 FILLER_26_80
*1726 FILLER_26_85
*1727 FILLER_26_96
*1728 FILLER_27_108
*1729 FILLER_27_113
*1730 FILLER_27_121
*1731 FILLER_27_141
*1732 FILLER_27_154
*1733 FILLER_27_161
*1734 FILLER_27_167
*1735 FILLER_27_17
*1736 FILLER_27_178
*1737 FILLER_27_186
*1738 FILLER_27_193
*1739 FILLER_27_197
*1740 FILLER_27_201
*1741 FILLER_27_214
*1742 FILLER_27_222
*1743 FILLER_27_228
*1744 FILLER_27_250
*1745 FILLER_27_263
*1746 FILLER_27_27
*1747 FILLER_27_276
*1748 FILLER_27_281
*1749 FILLER_27_285
*1750 FILLER_27_295
*1751 FILLER_27_3
*1752 FILLER_27_36
*1753 FILLER_27_49
*1754 FILLER_27_55
*1755 FILLER_27_61
*1756 FILLER_27_77
*1757 FILLER_27_91
*1758 FILLER_28_103
*1759 FILLER_28_114
*1760 FILLER_28_118
*1761 FILLER_28_122
*1762 FILLER_28_129
*1763 FILLER_28_136
*1764 FILLER_28_14
*1765 FILLER_28_141
*1766 FILLER_28_145
*1767 FILLER_28_162
*1768 FILLER_28_168
*1769 FILLER_28_172
*1770 FILLER_28_192
*1771 FILLER_28_206
*1772 FILLER_28_214
*1773 FILLER_28_231
*1774 FILLER_28_237
*1775 FILLER_28_24
*1776 FILLER_28_241
*1777 FILLER_28_249
*1778 FILLER_28_253
*1779 FILLER_28_272
*1780 FILLER_28_278
*1781 FILLER_28_295
*1782 FILLER_28_36
*1783 FILLER_28_44
*1784 FILLER_28_52
*1785 FILLER_28_6
*1786 FILLER_28_66
*1787 FILLER_28_80
*1788 FILLER_28_85
*1789 FILLER_28_97
*1790 FILLER_29_108
*1791 FILLER_29_121
*1792 FILLER_29_129
*1793 FILLER_29_140
*1794 FILLER_29_16
*1795 FILLER_29_164
*1796 FILLER_29_185
*1797 FILLER_29_193
*1798 FILLER_29_210
*1799 FILLER_29_216
*1800 FILLER_29_220
*1801 FILLER_29_234
*1802 FILLER_29_241
*1803 FILLER_29_247
*1804 FILLER_29_252
*1805 FILLER_29_265
*1806 FILLER_29_272
*1807 FILLER_29_290
*1808 FILLER_29_298
*1809 FILLER_29_3
*1810 FILLER_29_39
*1811 FILLER_29_47
*1812 FILLER_29_52
*1813 FILLER_29_57
*1814 FILLER_29_63
*1815 FILLER_29_7
*1816 FILLER_29_79
*1817 FILLER_29_87
*1818 FILLER_29_98
*1819 FILLER_2_116
*1820 FILLER_2_124
*1821 FILLER_2_134
*1822 FILLER_2_144
*1823 FILLER_2_161
*1824 FILLER_2_174
*1825 FILLER_2_180
*1826 FILLER_2_184
*1827 FILLER_2_19
*1828 FILLER_2_191
*1829 FILLER_2_195
*1830 FILLER_2_197
*1831 FILLER_2_205
*1832 FILLER_2_222
*1833 FILLER_2_229
*1834 FILLER_2_237
*1835 FILLER_2_248
*1836 FILLER_2_256
*1837 FILLER_2_260
*1838 FILLER_2_27
*1839 FILLER_2_270
*1840 FILLER_2_282
*1841 FILLER_2_294
*1842 FILLER_2_298
*1843 FILLER_2_32
*1844 FILLER_2_40
*1845 FILLER_2_50
*1846 FILLER_2_6
*1847 FILLER_2_70
*1848 FILLER_2_76
*1849 FILLER_2_80
*1850 FILLER_2_85
*1851 FILLER_2_95
*1852 FILLER_2_99
*1853 FILLER_30_11
*1854 FILLER_30_112
*1855 FILLER_30_132
*1856 FILLER_30_150
*1857 FILLER_30_178
*1858 FILLER_30_191
*1859 FILLER_30_195
*1860 FILLER_30_200
*1861 FILLER_30_212
*1862 FILLER_30_229
*1863 FILLER_30_24
*1864 FILLER_30_246
*1865 FILLER_30_263
*1866 FILLER_30_267
*1867 FILLER_30_284
*1868 FILLER_30_29
*1869 FILLER_30_291
*1870 FILLER_30_36
*1871 FILLER_30_53
*1872 FILLER_30_67
*1873 FILLER_30_79
*1874 FILLER_30_83