*SPEF "ieee 1481-1999"
*DESIGN "phasenoisepon_seven_segment_seconds"
*DATE "11:11:11 Fri 11 11, 1111"
*VENDOR "OpenRCX"
*PROGRAM "Parallel Extraction"
*VERSION "1.0"
*DESIGN_FLOW "NAME_SCOPE LOCAL" "PIN_CAP NONE"
*DIVIDER /
*DELIMITER :
*BUS_DELIMITER []
*T_UNIT 1 NS
*C_UNIT 1 PF
*R_UNIT 1 OHM
*L_UNIT 1 HENRY

*NAME_MAP
*1 io_in[0]
*2 io_in[1]
*3 io_in[2]
*4 io_in[3]
*5 io_in[4]
*6 io_in[5]
*7 io_in[6]
*8 io_in[7]
*9 io_out[0]
*10 io_out[1]
*11 io_out[2]
*12 io_out[3]
*13 io_out[4]
*14 io_out[5]
*15 io_out[6]
*16 io_out[7]
*19 _000_
*20 _001_
*21 _002_
*22 _003_
*23 _004_
*24 _005_
*25 _006_
*26 _007_
*27 _008_
*28 _009_
*29 _010_
*30 _011_
*31 _012_
*32 _013_
*33 _014_
*34 _015_
*35 _016_
*36 _017_
*37 _018_
*38 _019_
*39 _020_
*40 _021_
*41 _022_
*42 _023_
*43 _024_
*44 _025_
*45 _026_
*46 _027_
*47 _028_
*48 _029_
*49 _030_
*50 _031_
*51 _032_
*52 _033_
*53 _034_
*54 _035_
*55 _036_
*56 _037_
*57 _038_
*58 _039_
*59 _040_
*60 _041_
*61 _042_
*62 _043_
*63 _044_
*64 _045_
*65 _046_
*66 _047_
*67 _048_
*68 _049_
*69 _050_
*70 _051_
*71 _052_
*72 _053_
*73 _054_
*74 _055_
*75 _056_
*76 _057_
*77 _058_
*78 _059_
*79 _060_
*80 _061_
*81 _062_
*82 _063_
*83 _064_
*84 _065_
*85 _066_
*86 _067_
*87 _068_
*88 _069_
*89 _070_
*90 _071_
*91 _072_
*92 _073_
*93 _074_
*94 _075_
*95 _076_
*96 _077_
*97 _078_
*98 _079_
*99 _080_
*100 _081_
*101 _082_
*102 _083_
*103 _084_
*104 _085_
*105 _086_
*106 _087_
*107 _088_
*108 _089_
*109 _090_
*110 _091_
*111 _092_
*112 _093_
*113 _094_
*114 _095_
*115 _096_
*116 _097_
*117 _098_
*118 _099_
*119 _100_
*120 _101_
*121 _102_
*122 _103_
*123 _104_
*124 _105_
*125 _106_
*126 _107_
*127 _108_
*128 _109_
*129 _110_
*130 _111_
*131 _112_
*132 _113_
*133 _114_
*134 _115_
*135 _116_
*136 _117_
*137 _118_
*138 _119_
*139 _120_
*140 _121_
*141 _122_
*142 clknet_0_io_in[0]
*143 clknet_1_0__leaf_io_in[0]
*144 clknet_1_1__leaf_io_in[0]
*145 net1
*146 net2
*147 net3
*148 net4
*149 net5
*150 net6
*151 net7
*152 nibble_high\[0\]
*153 nibble_high\[1\]
*154 nibble_high\[2\]
*155 nibble_high\[3\]
*156 nibble_low\[0\]
*157 nibble_low\[1\]
*158 nibble_low\[2\]
*159 nibble_low\[3\]
*160 FILLER_0_102
*161 FILLER_0_110
*162 FILLER_0_113
*163 FILLER_0_125
*164 FILLER_0_137
*165 FILLER_0_141
*166 FILLER_0_153
*167 FILLER_0_165
*168 FILLER_0_169
*169 FILLER_0_181
*170 FILLER_0_193
*171 FILLER_0_197
*172 FILLER_0_209
*173 FILLER_0_22
*174 FILLER_0_221
*175 FILLER_0_225
*176 FILLER_0_237
*177 FILLER_0_249
*178 FILLER_0_253
*179 FILLER_0_265
*180 FILLER_0_277
*181 FILLER_0_281
*182 FILLER_0_293
*183 FILLER_0_3
*184 FILLER_0_46
*185 FILLER_0_54
*186 FILLER_0_73
*187 FILLER_0_80
*188 FILLER_0_92
*189 FILLER_10_100
*190 FILLER_10_111
*191 FILLER_10_119
*192 FILLER_10_131
*193 FILLER_10_139
*194 FILLER_10_141
*195 FILLER_10_153
*196 FILLER_10_165
*197 FILLER_10_177
*198 FILLER_10_189
*199 FILLER_10_195
*200 FILLER_10_197
*201 FILLER_10_209
*202 FILLER_10_221
*203 FILLER_10_233
*204 FILLER_10_24
*205 FILLER_10_245
*206 FILLER_10_251
*207 FILLER_10_253
*208 FILLER_10_265
*209 FILLER_10_277
*210 FILLER_10_289
*211 FILLER_10_29
*212 FILLER_10_297
*213 FILLER_10_3
*214 FILLER_10_41
*215 FILLER_10_48
*216 FILLER_10_55
*217 FILLER_10_67
*218 FILLER_10_7
*219 FILLER_10_71
*220 FILLER_10_79
*221 FILLER_10_83
*222 FILLER_10_85
*223 FILLER_10_91
*224 FILLER_11_105
*225 FILLER_11_111
*226 FILLER_11_118
*227 FILLER_11_130
*228 FILLER_11_14
*229 FILLER_11_142
*230 FILLER_11_154
*231 FILLER_11_166
*232 FILLER_11_169
*233 FILLER_11_181
*234 FILLER_11_193
*235 FILLER_11_205
*236 FILLER_11_217
*237 FILLER_11_223
*238 FILLER_11_225
*239 FILLER_11_237
*240 FILLER_11_249
*241 FILLER_11_261
*242 FILLER_11_273
*243 FILLER_11_279
*244 FILLER_11_281
*245 FILLER_11_293
*246 FILLER_11_33
*247 FILLER_11_49
*248 FILLER_11_55
*249 FILLER_11_6
*250 FILLER_11_60
*251 FILLER_11_76
*252 FILLER_11_87
*253 FILLER_11_98
*254 FILLER_12_105
*255 FILLER_12_117
*256 FILLER_12_132
*257 FILLER_12_141
*258 FILLER_12_153
*259 FILLER_12_165
*260 FILLER_12_177
*261 FILLER_12_189
*262 FILLER_12_195
*263 FILLER_12_197
*264 FILLER_12_209
*265 FILLER_12_221
*266 FILLER_12_233
*267 FILLER_12_24
*268 FILLER_12_245
*269 FILLER_12_251
*270 FILLER_12_253
*271 FILLER_12_265
*272 FILLER_12_277
*273 FILLER_12_289
*274 FILLER_12_29
*275 FILLER_12_297
*276 FILLER_12_3
*277 FILLER_12_41
*278 FILLER_12_53
*279 FILLER_12_57
*280 FILLER_12_63
*281 FILLER_12_67
*282 FILLER_12_7
*283 FILLER_12_78
*284 FILLER_12_85
*285 FILLER_12_93
*286 FILLER_13_105
*287 FILLER_13_111
*288 FILLER_13_121
*289 FILLER_13_133
*290 FILLER_13_145
*291 FILLER_13_15
*292 FILLER_13_157
*293 FILLER_13_165
*294 FILLER_13_169
*295 FILLER_13_181
*296 FILLER_13_193
*297 FILLER_13_205
*298 FILLER_13_217
*299 FILLER_13_223
*300 FILLER_13_225
*301 FILLER_13_237
*302 FILLER_13_249
*303 FILLER_13_261
*304 FILLER_13_27
*305 FILLER_13_273
*306 FILLER_13_279
*307 FILLER_13_281
*308 FILLER_13_293
*309 FILLER_13_3
*310 FILLER_13_36
*311 FILLER_13_48
*312 FILLER_13_57
*313 FILLER_13_64
*314 FILLER_13_77
*315 FILLER_13_93
*316 FILLER_14_109
*317 FILLER_14_11
*318 FILLER_14_121
*319 FILLER_14_128
*320 FILLER_14_149
*321 FILLER_14_161
*322 FILLER_14_166
*323 FILLER_14_178
*324 FILLER_14_19
*325 FILLER_14_190
*326 FILLER_14_197
*327 FILLER_14_209
*328 FILLER_14_221
*329 FILLER_14_233
*330 FILLER_14_24
*331 FILLER_14_245
*332 FILLER_14_251
*333 FILLER_14_253
*334 FILLER_14_265
*335 FILLER_14_277
*336 FILLER_14_289
*337 FILLER_14_29
*338 FILLER_14_297
*339 FILLER_14_3
*340 FILLER_14_35
*341 FILLER_14_43
*342 FILLER_14_55
*343 FILLER_14_59
*344 FILLER_14_63
*345 FILLER_14_75
*346 FILLER_14_83
*347 FILLER_14_85
*348 FILLER_14_97
*349 FILLER_15_100
*350 FILLER_15_113
*351 FILLER_15_125
*352 FILLER_15_137
*353 FILLER_15_14
*354 FILLER_15_149
*355 FILLER_15_161
*356 FILLER_15_167
*357 FILLER_15_169
*358 FILLER_15_181
*359 FILLER_15_193
*360 FILLER_15_205
*361 FILLER_15_217
*362 FILLER_15_223
*363 FILLER_15_225
*364 FILLER_15_23
*365 FILLER_15_237
*366 FILLER_15_249
*367 FILLER_15_261
*368 FILLER_15_273
*369 FILLER_15_279
*370 FILLER_15_281
*371 FILLER_15_293
*372 FILLER_15_3
*373 FILLER_15_33
*374 FILLER_15_45
*375 FILLER_15_53
*376 FILLER_15_64
*377 FILLER_15_76
*378 FILLER_15_80
*379 FILLER_15_88
*380 FILLER_16_109
*381 FILLER_16_121
*382 FILLER_16_133
*383 FILLER_16_139
*384 FILLER_16_148
*385 FILLER_16_160
*386 FILLER_16_172
*387 FILLER_16_18
*388 FILLER_16_184
*389 FILLER_16_197
*390 FILLER_16_209
*391 FILLER_16_221
*392 FILLER_16_233
*393 FILLER_16_245
*394 FILLER_16_251
*395 FILLER_16_253
*396 FILLER_16_26
*397 FILLER_16_265
*398 FILLER_16_277
*399 FILLER_16_289
*400 FILLER_16_29
*401 FILLER_16_297
*402 FILLER_16_37
*403 FILLER_16_44
*404 FILLER_16_53
*405 FILLER_16_6
*406 FILLER_16_61
*407 FILLER_16_72
*408 FILLER_16_85
*409 FILLER_16_97
*410 FILLER_17_103
*411 FILLER_17_11
*412 FILLER_17_111
*413 FILLER_17_113
*414 FILLER_17_125
*415 FILLER_17_137
*416 FILLER_17_149
*417 FILLER_17_15
*418 FILLER_17_161
*419 FILLER_17_167
*420 FILLER_17_169
*421 FILLER_17_181
*422 FILLER_17_193
*423 FILLER_17_205
*424 FILLER_17_217
*425 FILLER_17_223
*426 FILLER_17_225
*427 FILLER_17_237
*428 FILLER_17_249
*429 FILLER_17_261
*430 FILLER_17_27
*431 FILLER_17_273
*432 FILLER_17_279
*433 FILLER_17_281
*434 FILLER_17_293
*435 FILLER_17_3
*436 FILLER_17_34
*437 FILLER_17_52
*438 FILLER_17_57
*439 FILLER_17_61
*440 FILLER_17_67
*441 FILLER_17_71
*442 FILLER_17_79
*443 FILLER_17_91
*444 FILLER_18_105
*445 FILLER_18_117
*446 FILLER_18_129
*447 FILLER_18_137
*448 FILLER_18_141
*449 FILLER_18_15
*450 FILLER_18_153
*451 FILLER_18_165
*452 FILLER_18_177
*453 FILLER_18_189
*454 FILLER_18_195
*455 FILLER_18_197
*456 FILLER_18_209
*457 FILLER_18_221
*458 FILLER_18_233
*459 FILLER_18_245
*460 FILLER_18_251
*461 FILLER_18_253
*462 FILLER_18_265
*463 FILLER_18_27
*464 FILLER_18_277
*465 FILLER_18_289
*466 FILLER_18_297
*467 FILLER_18_3
*468 FILLER_18_34
*469 FILLER_18_38
*470 FILLER_18_46
*471 FILLER_18_50
*472 FILLER_18_58
*473 FILLER_18_64
*474 FILLER_18_68
*475 FILLER_18_80
*476 FILLER_18_93
*477 FILLER_19_104
*478 FILLER_19_11
*479 FILLER_19_113
*480 FILLER_19_125
*481 FILLER_19_137
*482 FILLER_19_152
*483 FILLER_19_164
*484 FILLER_19_169
*485 FILLER_19_174
*486 FILLER_19_186
*487 FILLER_19_198
*488 FILLER_19_210
*489 FILLER_19_222
*490 FILLER_19_225
*491 FILLER_19_237
*492 FILLER_19_249
*493 FILLER_19_261
*494 FILLER_19_273
*495 FILLER_19_279
*496 FILLER_19_281
*497 FILLER_19_293
*498 FILLER_19_3
*499 FILLER_19_32
*500 FILLER_19_44
*501 FILLER_19_57
*502 FILLER_19_69
*503 FILLER_19_7
*504 FILLER_19_75
*505 FILLER_19_80
*506 FILLER_19_92
*507 FILLER_1_103
*508 FILLER_1_111
*509 FILLER_1_113
*510 FILLER_1_124
*511 FILLER_1_132
*512 FILLER_1_144
*513 FILLER_1_15
*514 FILLER_1_156
*515 FILLER_1_169
*516 FILLER_1_181
*517 FILLER_1_193
*518 FILLER_1_205
*519 FILLER_1_217
*520 FILLER_1_223
*521 FILLER_1_225
*522 FILLER_1_237
*523 FILLER_1_249
*524 FILLER_1_261
*525 FILLER_1_273
*526 FILLER_1_279
*527 FILLER_1_281
*528 FILLER_1_293
*529 FILLER_1_3
*530 FILLER_1_36
*531 FILLER_1_42
*532 FILLER_1_52
*533 FILLER_1_65
*534 FILLER_1_76
*535 FILLER_1_84
*536 FILLER_1_95
*537 FILLER_20_102
*538 FILLER_20_11
*539 FILLER_20_114
*540 FILLER_20_126
*541 FILLER_20_138
*542 FILLER_20_141
*543 FILLER_20_153
*544 FILLER_20_165
*545 FILLER_20_177
*546 FILLER_20_189
*547 FILLER_20_195
*548 FILLER_20_197
*549 FILLER_20_209
*550 FILLER_20_221
*551 FILLER_20_23
*552 FILLER_20_233
*553 FILLER_20_245
*554 FILLER_20_251
*555 FILLER_20_253
*556 FILLER_20_265
*557 FILLER_20_27
*558 FILLER_20_277
*559 FILLER_20_289
*560 FILLER_20_29
*561 FILLER_20_297
*562 FILLER_20_3
*563 FILLER_20_41
*564 FILLER_20_52
*565 FILLER_20_60
*566 FILLER_20_70
*567 FILLER_20_82
*568 FILLER_20_85
*569 FILLER_20_93
*570 FILLER_21_104
*571 FILLER_21_113
*572 FILLER_21_125
*573 FILLER_21_137
*574 FILLER_21_149
*575 FILLER_21_161
*576 FILLER_21_167
*577 FILLER_21_169
*578 FILLER_21_18
*579 FILLER_21_181
*580 FILLER_21_193
*581 FILLER_21_205
*582 FILLER_21_217
*583 FILLER_21_223
*584 FILLER_21_225
*585 FILLER_21_237
*586 FILLER_21_249
*587 FILLER_21_261
*588 FILLER_21_273
*589 FILLER_21_279
*590 FILLER_21_281
*591 FILLER_21_293
*592 FILLER_21_30
*593 FILLER_21_42
*594 FILLER_21_50
*595 FILLER_21_57
*596 FILLER_21_6
*597 FILLER_21_69
*598 FILLER_21_73
*599 FILLER_21_80
*600 FILLER_21_92
*601 FILLER_22_109
*602 FILLER_22_121
*603 FILLER_22_133
*604 FILLER_22_139
*605 FILLER_22_141
*606 FILLER_22_15
*607 FILLER_22_153
*608 FILLER_22_165
*609 FILLER_22_177
*610 FILLER_22_189
*611 FILLER_22_195
*612 FILLER_22_197
*613 FILLER_22_209
*614 FILLER_22_21
*615 FILLER_22_221
*616 FILLER_22_233
*617 FILLER_22_245
*618 FILLER_22_251
*619 FILLER_22_253
*620 FILLER_22_265
*621 FILLER_22_27
*622 FILLER_22_277
*623 FILLER_22_289
*624 FILLER_22_29
*625 FILLER_22_297
*626 FILLER_22_3
*627 FILLER_22_33
*628 FILLER_22_38
*629 FILLER_22_50
*630 FILLER_22_62
*631 FILLER_22_74
*632 FILLER_22_82
*633 FILLER_22_85
*634 FILLER_22_97
*635 FILLER_23_105
*636 FILLER_23_111
*637 FILLER_23_113
*638 FILLER_23_125
*639 FILLER_23_137
*640 FILLER_23_149
*641 FILLER_23_15
*642 FILLER_23_161
*643 FILLER_23_167
*644 FILLER_23_169
*645 FILLER_23_181
*646 FILLER_23_193
*647 FILLER_23_205
*648 FILLER_23_217
*649 FILLER_23_223
*650 FILLER_23_225
*651 FILLER_23_237
*652 FILLER_23_249
*653 FILLER_23_261
*654 FILLER_23_27
*655 FILLER_23_273
*656 FILLER_23_279
*657 FILLER_23_281
*658 FILLER_23_293
*659 FILLER_23_3
*660 FILLER_23_39
*661 FILLER_23_51
*662 FILLER_23_55
*663 FILLER_23_57
*664 FILLER_23_69
*665 FILLER_23_81
*666 FILLER_23_93
*667 FILLER_24_109
*668 FILLER_24_121
*669 FILLER_24_133
*670 FILLER_24_139
*671 FILLER_24_141
*672 FILLER_24_153
*673 FILLER_24_165
*674 FILLER_24_177
*675 FILLER_24_18
*676 FILLER_24_189
*677 FILLER_24_195
*678 FILLER_24_197
*679 FILLER_24_209
*680 FILLER_24_221
*681 FILLER_24_233
*682 FILLER_24_245
*683 FILLER_24_251
*684 FILLER_24_253
*685 FILLER_24_26
*686 FILLER_24_265
*687 FILLER_24_277
*688 FILLER_24_289
*689 FILLER_24_29
*690 FILLER_24_297
*691 FILLER_24_46
*692 FILLER_24_58
*693 FILLER_24_6
*694 FILLER_24_67
*695 FILLER_24_79
*696 FILLER_24_83
*697 FILLER_24_85
*698 FILLER_24_97
*699 FILLER_25_105
*700 FILLER_25_111
*701 FILLER_25_113
*702 FILLER_25_125
*703 FILLER_25_137
*704 FILLER_25_149
*705 FILLER_25_15
*706 FILLER_25_161
*707 FILLER_25_167
*708 FILLER_25_169
*709 FILLER_25_181
*710 FILLER_25_193
*711 FILLER_25_205
*712 FILLER_25_217
*713 FILLER_25_223
*714 FILLER_25_225
*715 FILLER_25_237
*716 FILLER_25_249
*717 FILLER_25_261
*718 FILLER_25_27
*719 FILLER_25_273
*720 FILLER_25_279
*721 FILLER_25_281
*722 FILLER_25_293
*723 FILLER_25_3
*724 FILLER_25_39
*725 FILLER_25_51
*726 FILLER_25_55
*727 FILLER_25_57
*728 FILLER_25_69
*729 FILLER_25_81
*730 FILLER_25_93
*731 FILLER_26_109
*732 FILLER_26_11
*733 FILLER_26_121
*734 FILLER_26_133
*735 FILLER_26_139
*736 FILLER_26_141
*737 FILLER_26_153
*738 FILLER_26_165
*739 FILLER_26_177
*740 FILLER_26_189
*741 FILLER_26_19
*742 FILLER_26_195
*743 FILLER_26_197
*744 FILLER_26_209
*745 FILLER_26_221
*746 FILLER_26_233
*747 FILLER_26_245
*748 FILLER_26_251
*749 FILLER_26_253
*750 FILLER_26_265
*751 FILLER_26_27
*752 FILLER_26_277
*753 FILLER_26_289
*754 FILLER_26_29
*755 FILLER_26_297
*756 FILLER_26_3
*757 FILLER_26_41
*758 FILLER_26_49
*759 FILLER_26_57
*760 FILLER_26_69
*761 FILLER_26_81
*762 FILLER_26_85
*763 FILLER_26_97
*764 FILLER_27_105
*765 FILLER_27_111
*766 FILLER_27_113
*767 FILLER_27_125
*768 FILLER_27_137
*769 FILLER_27_149
*770 FILLER_27_161
*771 FILLER_27_167
*772 FILLER_27_169
*773 FILLER_27_18
*774 FILLER_27_181
*775 FILLER_27_193
*776 FILLER_27_205
*777 FILLER_27_217
*778 FILLER_27_223
*779 FILLER_27_225
*780 FILLER_27_237
*781 FILLER_27_249
*782 FILLER_27_261
*783 FILLER_27_273
*784 FILLER_27_279
*785 FILLER_27_281
*786 FILLER_27_293
*787 FILLER_27_30
*788 FILLER_27_42
*789 FILLER_27_54
*790 FILLER_27_57
*791 FILLER_27_6
*792 FILLER_27_69
*793 FILLER_27_81
*794 FILLER_27_93
*795 FILLER_28_109
*796 FILLER_28_121
*797 FILLER_28_133
*798 FILLER_28_139
*799 FILLER_28_141
*800 FILLER_28_15
*801 FILLER_28_153
*802 FILLER_28_165
*803 FILLER_28_177
*804 FILLER_28_189
*805 FILLER_28_195
*806 FILLER_28_197
*807 FILLER_28_209
*808 FILLER_28_221
*809 FILLER_28_233
*810 FILLER_28_245
*811 FILLER_28_251
*812 FILLER_28_253
*813 FILLER_28_265
*814 FILLER_28_27
*815 FILLER_28_277
*816 FILLER_28_289
*817 FILLER_28_29
*818 FILLER_28_297
*819 FILLER_28_3
*820 FILLER_28_41
*821 FILLER_28_53
*822 FILLER_28_65
*823 FILLER_28_77
*824 FILLER_28_83
*825 FILLER_28_85
*826 FILLER_28_97
*827 FILLER_29_105
*828 FILLER_29_111
*829 FILLER_29_113
*830 FILLER_29_125
*831 FILLER_29_137
*832 FILLER_29_149
*833 FILLER_29_15
*834 FILLER_29_161
*835 FILLER_29_167
*836 FILLER_29_169
*837 FILLER_29_181
*838 FILLER_29_193
*839 FILLER_29_205
*840 FILLER_29_217
*841 FILLER_29_223
*842 FILLER_29_225
*843 FILLER_29_237
*844 FILLER_29_249
*845 FILLER_29_261
*846 FILLER_29_27
*847 FILLER_29_273
*848 FILLER_29_279
*849 FILLER_29_281
*850 FILLER_29_293
*851 FILLER_29_3
*852 FILLER_29_31
*853 FILLER_29_36
*854 FILLER_29_48
*855 FILLER_29_57
*856 FILLER_29_69
*857 FILLER_29_81
*858 FILLER_29_93
*859 FILLER_2_108
*860 FILLER_2_120
*861 FILLER_2_132
*862 FILLER_2_141
*863 FILLER_2_153
*864 FILLER_2_165
*865 FILLER_2_177
*866 FILLER_2_189
*867 FILLER_2_195
*868 FILLER_2_197
*869 FILLER_2_209
*870 FILLER_2_221
*871 FILLER_2_233
*872 FILLER_2_24
*873 FILLER_2_245
*874 FILLER_2_251
*875 FILLER_2_253
*876 FILLER_2_265
*877 FILLER_2_277
*878 FILLER_2_289
*879 FILLER_2_297
*880 FILLER_2_3
*881 FILLER_2_32
*882 FILLER_2_53
*883 FILLER_2_73
*884 FILLER_2_80
*885 FILLER_2_85
*886 FILLER_2_89
*887 FILLER_2_96
*888 FILLER_30_109
*889 FILLER_30_121
*890 FILLER_30_133
*891 FILLER_30_139
*892 FILLER_30_141
*893 FILLER_30_15
*894 FILLER_30_153
*895 FILLER_30_165
*896 FILLER_30_177
*897 FILLER_30_189
*898 FILLER_30_195
*899 FILLER_30_197
*900 FILLER_30_209
*901 FILLER_30_221
*902 FILLER_30_233
*903 FILLER_30_245
*904 FILLER_30_251
*905 FILLER_30_253
*906 FILLER_30_265
*907 FILLER_30_27
*908 FILLER_30_277
*909 FILLER_30_289
*910 FILLER_30_29
*911 FILLER_30_297
*912 FILLER_30_3
*913 FILLER_30_37
*914 FILLER_30_42
*915 FILLER_30_54
*916 FILLER_30_66
*917 FILLER_30_78
*918 FILLER_30_85
*919 FILLER_30_97
*920 FILLER_31_105
*921 FILLER_31_111
*922 FILLER_31_113
*923 FILLER_31_125
*924 FILLER_31_137
*925 FILLER_31_149
*926 FILLER_31_15
*927 FILLER_31_161
*928 FILLER_31_167
*929 FILLER_31_169
*930 FILLER_31_181
*931 FILLER_31_193
*932 FILLER_31_205
*933 FILLER_31_217
*934 FILLER_31_223
*935 FILLER_31_225
*936 FILLER_31_237
*937 FILLER_31_249
*938 FILLER_31_261
*939 FILLER_31_27
*940 FILLER_31_273
*941 FILLER_31_279
*942 FILLER_31_281
*943 FILLER_31_293
*944 FILLER_31_3
*945 FILLER_31_39
*946 FILLER_31_51
*947 FILLER_31_55
*948 FILLER_31_57
*949 FILLER_31_69
*950 FILLER_31_81
*951 FILLER_31_93
*952 FILLER_32_109
*953 FILLER_32_121
*954 FILLER_32_133
*955 FILLER_32_139
*956 FILLER_32_141
*957 FILLER_32_15
*958 FILLER_32_153
*959 FILLER_32_165
*960 FILLER_32_177
*961 FILLER_32_189
*962 FILLER_32_195
*963 FILLER_32_197
*964 FILLER_32_209
*965 FILLER_32_221
*966 FILLER_32_233
*967 FILLER_32_245
*968 FILLER_32_251
*969 FILLER_32_253
*970 FILLER_32_265
*971 FILLER_32_27
*972 FILLER_32_277
*973 FILLER_32_289
*974 FILLER_32_29
*975 FILLER_32_297
*976 FILLER_32_3
*977 FILLER_32_41
*978 FILLER_32_53
*979 FILLER_32_65
*980 FILLER_32_77
*981 FILLER_32_83
*982 FILLER_32_85
*983 FILLER_32_97
*984 FILLER_33_105
*985 FILLER_33_111
*986 FILLER_33_113
*987 FILLER_33_125
*988 FILLER_33_137
*989 FILLER_33_149
*990 FILLER_33_15
*991 FILLER_33_161
*992 FILLER_33_167
*993 FILLER_33_169
*994 FILLER_33_181
*995 FILLER_33_193
*996 FILLER_33_205
*997 FILLER_33_217
*998 FILLER_33_223
*999 FILLER_33_225
*1000 FILLER_33_237
*1001 FILLER_33_249
*1002 FILLER_33_261
*1003 FILLER_33_27
*1004 FILLER_33_273
*1005 FILLER_33_279
*1006 FILLER_33_281
*1007 FILLER_33_293
*1008 FILLER_33_3
*1009 FILLER_33_39
*1010 FILLER_33_51
*1011 FILLER_33_55
*1012 FILLER_33_57
*1013 FILLER_33_69
*1014 FILLER_33_81
*1015 FILLER_33_93
*1016 FILLER_34_109
*1017 FILLER_34_121
*1018 FILLER_34_133
*1019 FILLER_34_139
*1020 FILLER_34_141
*1021 FILLER_34_15
*1022 FILLER_34_153
*1023 FILLER_34_165
*1024 FILLER_34_177
*1025 FILLER_34_189
*1026 FILLER_34_195
*1027 FILLER_34_197
*1028 FILLER_34_209
*1029 FILLER_34_221
*1030 FILLER_34_233
*1031 FILLER_34_245
*1032 FILLER_34_251
*1033 FILLER_34_253
*1034 FILLER_34_265
*1035 FILLER_34_27
*1036 FILLER_34_277
*1037 FILLER_34_289
*1038 FILLER_34_29
*1039 FILLER_34_297
*1040 FILLER_34_3
*1041 FILLER_34_41
*1042 FILLER_34_53
*1043 FILLER_34_65
*1044 FILLER_34_77
*1045 FILLER_34_83
*1046 FILLER_34_85
*1047 FILLER_34_97
*1048 FILLER_35_105
*1049 FILLER_35_111
*1050 FILLER_35_113
*1051 FILLER_35_125
*1052 FILLER_35_137
*1053 FILLER_35_149
*1054 FILLER_35_15
*1055 FILLER_35_161
*1056 FILLER_35_167
*1057 FILLER_35_169
*1058 FILLER_35_181
*1059 FILLER_35_193
*1060 FILLER_35_205
*1061 FILLER_35_217
*1062 FILLER_35_223
*1063 FILLER_35_225
*1064 FILLER_35_237
*1065 FILLER_35_249
*1066 FILLER_35_261
*1067 FILLER_35_27
*1068 FILLER_35_273
*1069 FILLER_35_279
*1070 FILLER_35_281
*1071 FILLER_35_293
*1072 FILLER_35_3
*1073 FILLER_35_39
*1074 FILLER_35_51
*1075 FILLER_35_55
*1076 FILLER_35_57
*1077 FILLER_35_69
*1078 FILLER_35_81
*1079 FILLER_35_93
*1080 FILLER_36_109
*1081 FILLER_36_121
*1082 FILLER_36_133
*1083 FILLER_36_139
*1084 FILLER_36_141
*1085 FILLER_36_15
*1086 FILLER_36_153
*1087 FILLER_36_165
*1088 FILLER_36_177
*1089 FILLER_36_189
*1090 FILLER_36_195
*1091 FILLER_36_197
*1092 FILLER_36_209
*1093 FILLER_36_221
*1094 FILLER_36_233
*1095 FILLER_36_245
*1096 FILLER_36_251
*1097 FILLER_36_253
*1098 FILLER_36_265
*1099 FILLER_36_27
*1100 FILLER_36_277
*1101 FILLER_36_289
*1102 FILLER_36_29
*1103 FILLER_36_297
*1104 FILLER_36_3
*1105 FILLER_36_41
*1106 FILLER_36_53
*1107 FILLER_36_65
*1108 FILLER_36_77
*1109 FILLER_36_83
*1110 FILLER_36_85
*1111 FILLER_36_97
*1112 FILLER_37_105
*1113 FILLER_37_111
*1114 FILLER_37_113
*1115 FILLER_37_125
*1116 FILLER_37_137
*1117 FILLER_37_149
*1118 FILLER_37_15
*1119 FILLER_37_161
*1120 FILLER_37_167
*1121 FILLER_37_169
*1122 FILLER_37_181
*1123 FILLER_37_193
*1124 FILLER_37_205
*1125 FILLER_37_217
*1126 FILLER_37_223
*1127 FILLER_37_225
*1128 FILLER_37_237
*1129 FILLER_37_249
*1130 FILLER_37_261
*1131 FILLER_37_27
*1132 FILLER_37_273
*1133 FILLER_37_279
*1134 FILLER_37_281
*1135 FILLER_37_293
*1136 FILLER_37_3
*1137 FILLER_37_39
*1138 FILLER_37_51
*1139 FILLER_37_55
*1140 FILLER_37_57
*1141 FILLER_37_69
*1142 FILLER_37_81
*1143 FILLER_37_93
*1144 FILLER_38_109
*1145 FILLER_38_121
*1146 FILLER_38_133
*1147 FILLER_38_139
*1148 FILLER_38_141
*1149 FILLER_38_15
*1150 FILLER_38_153
*1151 FILLER_38_165
*1152 FILLER_38_177
*1153 FILLER_38_189
*1154 FILLER_38_195
*1155 FILLER_38_197
*1156 FILLER_38_209
*1157 FILLER_38_221
*1158 FILLER_38_233
*1159 FILLER_38_245
*1160 FILLER_38_251
*1161 FILLER_38_253
*1162 FILLER_38_265
*1163 FILLER_38_27
*1164 FILLER_38_277
*1165 FILLER_38_289
*1166 FILLER_38_29
*1167 FILLER_38_297
*1168 FILLER_38_3
*1169 FILLER_38_41
*1170 FILLER_38_53
*1171 FILLER_38_65
*1172 FILLER_38_77
*1173 FILLER_38_83
*1174 FILLER_38_85
*1175 FILLER_38_97
*1176 FILLER_39_105
*1177 FILLER_39_111
*1178 FILLER_39_113
*1179 FILLER_39_125
*1180 FILLER_39_137
*1181 FILLER_39_149
*1182 FILLER_39_15
*1183 FILLER_39_161
*1184 FILLER_39_167
*1185 FILLER_39_169
*1186 FILLER_39_181
*1187 FILLER_39_193
*1188 FILLER_39_205
*1189 FILLER_39_217
*1190 FILLER_39_223
*1191 FILLER_39_225
*1192 FILLER_39_237
*1193 FILLER_39_249
*1194 FILLER_39_261
*1195 FILLER_39_27
*1196 FILLER_39_273
*1197 FILLER_39_279
*1198 FILLER_39_281
*1199 FILLER_39_293
*1200 FILLER_39_3
*1201 FILLER_39_39
*1202 FILLER_39_51
*1203 FILLER_39_55
*1204 FILLER_39_57
*1205 FILLER_39_69
*1206 FILLER_39_81
*1207 FILLER_39_93
*1208 FILLER_3_108
*1209 FILLER_3_113
*1210 FILLER_3_125
*1211 FILLER_3_137
*1212 FILLER_3_149
*1213 FILLER_3_15
*1214 FILLER_3_161
*1215 FILLER_3_167
*1216 FILLER_3_169
*1217 FILLER_3_181
*1218 FILLER_3_193
*1219 FILLER_3_205
*1220 FILLER_3_217
*1221 FILLER_3_223
*1222 FILLER_3_225
*1223 FILLER_3_237
*1224 FILLER_3_249
*1225 FILLER_3_261
*1226 FILLER_3_273
*1227 FILLER_3_279
*1228 FILLER_3_281
*1229 FILLER_3_293
*1230 FILLER_3_3
*1231 FILLER_3_36
*1232 FILLER_3_50
*1233 FILLER_3_64
*1234 FILLER_3_76
*1235 FILLER_3_88
*1236 FILLER_3_96
*1237 FILLER_40_109
*1238 FILLER_40_121
*1239 FILLER_40_133
*1240 FILLER_40_139
*1241 FILLER_40_141
*1242 FILLER_40_15
*1243 FILLER_40_153
*1244 FILLER_40_165
*1245 FILLER_40_177
*1246 FILLER_40_189
*1247 FILLER_40_195
*1248 FILLER_40_197
*1249 FILLER_40_209
*1250 FILLER_40_221
*1251 FILLER_40_233
*1252 FILLER_40_245
*1253 FILLER_40_251
*1254 FILLER_40_253
*1255 FILLER_40_265
*1256 FILLER_40_27
*1257 FILLER_40_277
*1258 FILLER_40_289
*1259 FILLER_40_29
*1260 FILLER_40_297
*1261 FILLER_40_3
*1262 FILLER_40_41
*1263 FILLER_40_53
*1264 FILLER_40_65
*1265 FILLER_40_77
*1266 FILLER_40_83
*1267 FILLER_40_85
*1268 FILLER_40_97
*1269 FILLER_41_105
*1270 FILLER_41_111
*1271 FILLER_41_113
*1272 FILLER_41_125
*1273 FILLER_41_137
*1274 FILLER_41_149
*1275 FILLER_41_15
*1276 FILLER_41_161
*1277 FILLER_41_167
*1278 FILLER_41_169
*1279 FILLER_41_181
*1280 FILLER_41_193
*1281 FILLER_41_205
*1282 FILLER_41_217
*1283 FILLER_41_223
*1284 FILLER_41_225
*1285 FILLER_41_237
*1286 FILLER_41_249
*1287 FILLER_41_261
*1288 FILLER_41_27
*1289 FILLER_41_273
*1290 FILLER_41_279
*1291 FILLER_41_281
*1292 FILLER_41_293
*1293 FILLER_41_3
*1294 FILLER_41_39
*1295 FILLER_41_51
*1296 FILLER_41_55
*1297 FILLER_41_57
*1298 FILLER_41_69
*1299 FILLER_41_81
*1300 FILLER_41_93
*1301 FILLER_42_109
*1302 FILLER_42_121
*1303 FILLER_42_133
*1304 FILLER_42_139
*1305 FILLER_42_141
*1306 FILLER_42_15
*1307 FILLER_42_153
*1308 FILLER_42_165
*1309 FILLER_42_177
*1310 FILLER_42_189
*1311 FILLER_42_195
*1312 FILLER_42_197
*1313 FILLER_42_209
*1314 FILLER_42_221
*1315 FILLER_42_233
*1316 FILLER_42_245
*1317 FILLER_42_251
*1318 FILLER_42_253
*1319 FILLER_42_265
*1320 FILLER_42_27
*1321 FILLER_42_277
*1322 FILLER_42_289
*1323 FILLER_42_29
*1324 FILLER_42_297
*1325 FILLER_42_3
*1326 FILLER_42_41
*1327 FILLER_42_53
*1328 FILLER_42_65
*1329 FILLER_42_77
*1330 FILLER_42_83
*1331 FILLER_42_85
*1332 FILLER_42_97
*1333 FILLER_43_105
*1334 FILLER_43_111
*1335 FILLER_43_113
*1336 FILLER_43_125
*1337 FILLER_43_137
*1338 FILLER_43_149
*1339 FILLER_43_15
*1340 FILLER_43_161
*1341 FILLER_43_167
*1342 FILLER_43_169
*1343 FILLER_43_181
*1344 FILLER_43_193
*1345 FILLER_43_205
*1346 FILLER_43_217
*1347 FILLER_43_223
*1348 FILLER_43_225
*1349 FILLER_43_237
*1350 FILLER_43_249
*1351 FILLER_43_261
*1352 FILLER_43_27
*1353 FILLER_43_273
*1354 FILLER_43_279
*1355 FILLER_43_281
*1356 FILLER_43_293
*1357 FILLER_43_3
*1358 FILLER_43_39
*1359 FILLER_43_51
*1360 FILLER_43_55
*1361 FILLER_43_57
*1362 FILLER_43_69
*1363 FILLER_43_81
*1364 FILLER_43_93
*1365 FILLER_44_109
*1366 FILLER_44_121
*1367 FILLER_44_133
*1368 FILLER_44_139
*1369 FILLER_44_141
*1370 FILLER_44_15
*1371 FILLER_44_153
*1372 FILLER_44_165
*1373 FILLER_44_177
*1374 FILLER_44_189
*1375 FILLER_44_195
*1376 FILLER_44_197
*1377 FILLER_44_209
*1378 FILLER_44_221
*1379 FILLER_44_233
*1380 FILLER_44_245
*1381 FILLER_44_251
*1382 FILLER_44_253
*1383 FILLER_44_265
*1384 FILLER_44_27
*1385 FILLER_44_277
*1386 FILLER_44_289
*1387 FILLER_44_29
*1388 FILLER_44_297
*1389 FILLER_44_3
*1390 FILLER_44_41
*1391 FILLER_44_53
*1392 FILLER_44_65
*1393 FILLER_44_77
*1394 FILLER_44_83
*1395 FILLER_44_85
*1396 FILLER_44_97
*1397 FILLER_45_105
*1398 FILLER_45_111
*1399 FILLER_45_113
*1400 FILLER_45_125
*1401 FILLER_45_137
*1402 FILLER_45_149
*1403 FILLER_45_15
*1404 FILLER_45_161
*1405 FILLER_45_167
*1406 FILLER_45_169
*1407 FILLER_45_181
*1408 FILLER_45_193
*1409 FILLER_45_205
*1410 FILLER_45_217
*1411 FILLER_45_223
*1412 FILLER_45_225
*1413 FILLER_45_237
*1414 FILLER_45_249
*1415 FILLER_45_261
*1416 FILLER_45_27
*1417 FILLER_45_273
*1418 FILLER_45_279
*1419 FILLER_45_281
*1420 FILLER_45_293
*1421 FILLER_45_3
*1422 FILLER_45_39
*1423 FILLER_45_51
*1424 FILLER_45_55
*1425 FILLER_45_57
*1426 FILLER_45_69
*1427 FILLER_45_81
*1428 FILLER_45_93
*1429 FILLER_46_109
*1430 FILLER_46_121
*1431 FILLER_46_133
*1432 FILLER_46_139
*1433 FILLER_46_141
*1434 FILLER_46_15
*1435 FILLER_46_153
*1436 FILLER_46_165
*1437 FILLER_46_177
*1438 FILLER_46_189
*1439 FILLER_46_195
*1440 FILLER_46_197
*1441 FILLER_46_209
*1442 FILLER_46_221
*1443 FILLER_46_233
*1444 FILLER_46_245
*1445 FILLER_46_251
*1446 FILLER_46_253
*1447 FILLER_46_265
*1448 FILLER_46_27
*1449 FILLER_46_277
*1450 FILLER_46_289
*1451 FILLER_46_29
*1452 FILLER_46_297
*1453 FILLER_46_3
*1454 FILLER_46_41
*1455 FILLER_46_53
*1456 FILLER_46_65
*1457 FILLER_46_77
*1458 FILLER_46_83
*1459 FILLER_46_85
*1460 FILLER_46_97
*1461 FILLER_47_105
*1462 FILLER_47_111
*1463 FILLER_47_113
*1464 FILLER_47_125
*1465 FILLER_47_137
*1466 FILLER_47_149
*1467 FILLER_47_15
*1468 FILLER_47_161
*1469 FILLER_47_167
*1470 FILLER_47_169
*1471 FILLER_47_181
*1472 FILLER_47_193
*1473 FILLER_47_205
*1474 FILLER_47_217
*1475 FILLER_47_223
*1476 FILLER_47_225
*1477 FILLER_47_237
*1478 FILLER_47_249
*1479 FILLER_47_261
*1480 FILLER_47_27
*1481 FILLER_47_273
*1482 FILLER_47_279
*1483 FILLER_47_281
*1484 FILLER_47_293
*1485 FILLER_47_3
*1486 FILLER_47_39
*1487 FILLER_47_51
*1488 FILLER_47_55
*1489 FILLER_47_57
*1490 FILLER_47_69
*1491 FILLER_47_81
*1492 FILLER_47_93
*1493 FILLER_48_109
*1494 FILLER_48_121
*1495 FILLER_48_133
*1496 FILLER_48_139
*1497 FILLER_48_141
*1498 FILLER_48_15
*1499 FILLER_48_153
*1500 FILLER_48_165
*1501 FILLER_48_177
*1502 FILLER_48_189
*1503 FILLER_48_195
*1504 FILLER_48_197
*1505 FILLER_48_209
*1506 FILLER_48_221
*1507 FILLER_48_233
*1508 FILLER_48_245
*1509 FILLER_48_251
*1510 FILLER_48_253
*1511 FILLER_48_265
*1512 FILLER_48_27
*1513 FILLER_48_277
*1514 FILLER_48_289
*1515 FILLER_48_29
*1516 FILLER_48_297
*1517 FILLER_48_3
*1518 FILLER_48_41
*1519 FILLER_48_53
*1520 FILLER_48_65
*1521 FILLER_48_77
*1522 FILLER_48_83
*1523 FILLER_48_85
*1524 FILLER_48_97
*1525 FILLER_49_105
*1526 FILLER_49_111
*1527 FILLER_49_113
*1528 FILLER_49_125
*1529 FILLER_49_137
*1530 FILLER_49_149
*1531 FILLER_49_15
*1532 FILLER_49_161
*1533 FILLER_49_167
*1534 FILLER_49_169
*1535 FILLER_49_181
*1536 FILLER_49_193
*1537 FILLER_49_205
*1538 FILLER_49_217
*1539 FILLER_49_223
*1540 FILLER_49_225
*1541 FILLER_49_237
*1542 FILLER_49_249
*1543 FILLER_49_261
*1544 FILLER_49_27
*1545 FILLER_49_273
*1546 FILLER_49_279
*1547 FILLER_49_281
*1548 FILLER_49_293
*1549 FILLER_49_3
*1550 FILLER_49_39
*1551 FILLER_49_51
*1552 FILLER_49_55
*1553 FILLER_49_57
*1554 FILLER_49_69
*1555 FILLER_49_81
*1556 FILLER_49_93
*1557 FILLER_4_104
*1558 FILLER_4_116
*1559 FILLER_4_120
*1560 FILLER_4_131
*1561 FILLER_4_139
*1562 FILLER_4_141
*1563 FILLER_4_153
*1564 FILLER_4_165
*1565 FILLER_4_177
*1566 FILLER_4_189
*1567 FILLER_4_195
*1568 FILLER_4_197
*1569 FILLER_4_20
*1570 FILLER_4_209
*1571 FILLER_4_221
*1572 FILLER_4_233
*1573 FILLER_4_245
*1574 FILLER_4_251
*1575 FILLER_4_253
*1576 FILLER_4_265
*1577 FILLER_4_277
*1578 FILLER_4_289
*1579 FILLER_4_29
*1580 FILLER_4_297
*1581 FILLER_4_35
*1582 FILLER_4_52
*1583 FILLER_4_66
*1584 FILLER_4_74
*1585 FILLER_4_82
*1586 FILLER_4_95
*1587 FILLER_4_99
*1588 FILLER_50_109
*1589 FILLER_50_121
*1590 FILLER_50_133
*1591 FILLER_50_139
*1592 FILLER_50_141
*1593 FILLER_50_15
*1594 FILLER_50_153
*1595 FILLER_50_165
*1596 FILLER_50_177
*1597 FILLER_50_189
*1598 FILLER_50_195
*1599 FILLER_50_197
*1600 FILLER_50_209
*1601 FILLER_50_221
*1602 FILLER_50_233
*1603 FILLER_50_245
*1604 FILLER_50_251
*1605 FILLER_50_253
*1606 FILLER_50_265
*1607 FILLER_50_27
*1608 FILLER_50_277
*1609 FILLER_50_289
*1610 FILLER_50_29
*1611 FILLER_50_297
*1612 FILLER_50_3
*1613 FILLER_50_41
*1614 FILLER_50_53
*1615 FILLER_50_65
*1616 FILLER_50_77
*1617 FILLER_50_83
*1618 FILLER_50_85
*1619 FILLER_50_97
*1620 FILLER_51_105
*1621 FILLER_51_111
*1622 FILLER_51_113
*1623 FILLER_51_125
*1624 FILLER_51_137
*1625 FILLER_51_149
*1626 FILLER_51_15
*1627 FILLER_51_161
*1628 FILLER_51_167