*SPEF "ieee 1481-1999"
*DESIGN "poisonninja_top"
*DATE "11:11:11 Fri 11 11, 1111"
*VENDOR "OpenRCX"
*PROGRAM "Parallel Extraction"
*VERSION "1.0"
*DESIGN_FLOW "NAME_SCOPE LOCAL" "PIN_CAP NONE"
*DIVIDER /
*DELIMITER :
*BUS_DELIMITER []
*T_UNIT 1 NS
*C_UNIT 1 PF
*R_UNIT 1 OHM
*L_UNIT 1 HENRY

*NAME_MAP
*1 io_in[0]
*2 io_in[1]
*3 io_in[2]
*4 io_in[3]
*5 io_in[4]
*6 io_in[5]
*7 io_in[6]
*8 io_in[7]
*9 io_out[0]
*10 net8
*11 net9
*12 net10
*13 net11
*14 net12
*15 net13
*16 net14
*19 _000_
*20 _001_
*21 _002_
*22 _003_
*23 _004_
*24 _005_
*25 _006_
*26 _007_
*27 _008_
*28 _009_
*29 _010_
*30 _011_
*31 _012_
*32 _013_
*33 _014_
*34 _015_
*35 _016_
*36 _017_
*37 _018_
*38 _019_
*39 _020_
*40 _021_
*41 _022_
*42 _023_
*43 _024_
*44 _025_
*45 _026_
*46 _027_
*47 _028_
*48 _029_
*49 _030_
*50 _031_
*51 _032_
*52 _033_
*53 _034_
*54 _035_
*55 _036_
*56 _037_
*57 _038_
*58 _039_
*59 _040_
*60 _041_
*61 _042_
*62 _043_
*63 _044_
*64 _045_
*65 _046_
*66 _047_
*67 _048_
*68 _049_
*69 _050_
*70 _051_
*71 _052_
*72 _053_
*73 _054_
*74 _055_
*75 _056_
*76 _057_
*77 _058_
*78 clknet_0_io_in[0]
*79 clknet_1_0__leaf_io_in[0]
*80 clknet_1_1__leaf_io_in[0]
*81 net1
*82 net2
*83 net3
*84 net4
*85 net5
*86 net6
*87 net7
*88 pwm\.active_duty\[0\]
*89 pwm\.active_duty\[1\]
*90 pwm\.active_duty\[2\]
*91 pwm\.active_duty\[3\]
*92 pwm\.active_duty\[4\]
*93 pwm\.active_duty\[5\]
*94 pwm\.counter\[0\]
*95 pwm\.counter\[1\]
*96 pwm\.counter\[2\]
*97 pwm\.counter\[3\]
*98 pwm\.counter\[4\]
*99 pwm\.counter\[5\]
*100 pwm\.pwm_signal
*101 FILLER_0_109
*102 FILLER_0_113
*103 FILLER_0_125
*104 FILLER_0_137
*105 FILLER_0_141
*106 FILLER_0_153
*107 FILLER_0_165
*108 FILLER_0_169
*109 FILLER_0_181
*110 FILLER_0_193
*111 FILLER_0_197
*112 FILLER_0_209
*113 FILLER_0_22
*114 FILLER_0_221
*115 FILLER_0_225
*116 FILLER_0_237
*117 FILLER_0_249
*118 FILLER_0_253
*119 FILLER_0_265
*120 FILLER_0_277
*121 FILLER_0_281
*122 FILLER_0_29
*123 FILLER_0_293
*124 FILLER_0_3
*125 FILLER_0_35
*126 FILLER_0_52
*127 FILLER_0_73
*128 FILLER_0_81
*129 FILLER_0_85
*130 FILLER_0_97
*131 FILLER_10_109
*132 FILLER_10_121
*133 FILLER_10_133
*134 FILLER_10_139
*135 FILLER_10_141
*136 FILLER_10_153
*137 FILLER_10_165
*138 FILLER_10_177
*139 FILLER_10_189
*140 FILLER_10_195
*141 FILLER_10_197
*142 FILLER_10_209
*143 FILLER_10_221
*144 FILLER_10_233
*145 FILLER_10_24
*146 FILLER_10_245
*147 FILLER_10_251
*148 FILLER_10_253
*149 FILLER_10_265
*150 FILLER_10_277
*151 FILLER_10_289
*152 FILLER_10_29
*153 FILLER_10_297
*154 FILLER_10_3
*155 FILLER_10_41
*156 FILLER_10_53
*157 FILLER_10_65
*158 FILLER_10_7
*159 FILLER_10_77
*160 FILLER_10_83
*161 FILLER_10_85
*162 FILLER_10_97
*163 FILLER_11_110
*164 FILLER_11_113
*165 FILLER_11_125
*166 FILLER_11_137
*167 FILLER_11_149
*168 FILLER_11_161
*169 FILLER_11_167
*170 FILLER_11_169
*171 FILLER_11_18
*172 FILLER_11_181
*173 FILLER_11_193
*174 FILLER_11_205
*175 FILLER_11_217
*176 FILLER_11_223
*177 FILLER_11_225
*178 FILLER_11_237
*179 FILLER_11_249
*180 FILLER_11_261
*181 FILLER_11_273
*182 FILLER_11_279
*183 FILLER_11_281
*184 FILLER_11_293
*185 FILLER_11_30
*186 FILLER_11_42
*187 FILLER_11_54
*188 FILLER_11_6
*189 FILLER_11_62
*190 FILLER_11_74
*191 FILLER_11_86
*192 FILLER_11_98
*193 FILLER_12_109
*194 FILLER_12_12
*195 FILLER_12_121
*196 FILLER_12_133
*197 FILLER_12_139
*198 FILLER_12_141
*199 FILLER_12_153
*200 FILLER_12_165
*201 FILLER_12_177
*202 FILLER_12_189
*203 FILLER_12_195
*204 FILLER_12_197
*205 FILLER_12_209
*206 FILLER_12_221
*207 FILLER_12_233
*208 FILLER_12_24
*209 FILLER_12_245
*210 FILLER_12_251
*211 FILLER_12_253
*212 FILLER_12_265
*213 FILLER_12_277
*214 FILLER_12_289
*215 FILLER_12_29
*216 FILLER_12_297
*217 FILLER_12_3
*218 FILLER_12_37
*219 FILLER_12_47
*220 FILLER_12_61
*221 FILLER_12_7
*222 FILLER_12_72
*223 FILLER_12_85
*224 FILLER_12_97
*225 FILLER_13_10
*226 FILLER_13_110
*227 FILLER_13_113
*228 FILLER_13_125
*229 FILLER_13_137
*230 FILLER_13_149
*231 FILLER_13_161
*232 FILLER_13_167
*233 FILLER_13_169
*234 FILLER_13_181
*235 FILLER_13_193
*236 FILLER_13_205
*237 FILLER_13_217
*238 FILLER_13_22
*239 FILLER_13_223
*240 FILLER_13_225
*241 FILLER_13_237
*242 FILLER_13_249
*243 FILLER_13_261
*244 FILLER_13_273
*245 FILLER_13_279
*246 FILLER_13_281
*247 FILLER_13_293
*248 FILLER_13_3
*249 FILLER_13_34
*250 FILLER_13_43
*251 FILLER_13_55
*252 FILLER_13_57
*253 FILLER_13_69
*254 FILLER_13_74
*255 FILLER_13_86
*256 FILLER_13_98
*257 FILLER_14_109
*258 FILLER_14_121
*259 FILLER_14_13
*260 FILLER_14_133
*261 FILLER_14_139
*262 FILLER_14_141
*263 FILLER_14_153
*264 FILLER_14_165
*265 FILLER_14_177
*266 FILLER_14_189
*267 FILLER_14_195
*268 FILLER_14_197
*269 FILLER_14_209
*270 FILLER_14_221
*271 FILLER_14_233
*272 FILLER_14_24
*273 FILLER_14_245
*274 FILLER_14_251
*275 FILLER_14_253
*276 FILLER_14_265
*277 FILLER_14_277
*278 FILLER_14_289
*279 FILLER_14_297
*280 FILLER_14_3
*281 FILLER_14_36
*282 FILLER_14_48
*283 FILLER_14_60
*284 FILLER_14_72
*285 FILLER_14_85
*286 FILLER_14_97
*287 FILLER_15_108
*288 FILLER_15_113
*289 FILLER_15_125
*290 FILLER_15_137
*291 FILLER_15_149
*292 FILLER_15_161
*293 FILLER_15_167
*294 FILLER_15_169
*295 FILLER_15_18
*296 FILLER_15_181
*297 FILLER_15_193
*298 FILLER_15_205
*299 FILLER_15_217
*300 FILLER_15_223
*301 FILLER_15_225
*302 FILLER_15_237
*303 FILLER_15_249
*304 FILLER_15_261
*305 FILLER_15_273
*306 FILLER_15_279
*307 FILLER_15_281
*308 FILLER_15_293
*309 FILLER_15_30
*310 FILLER_15_52
*311 FILLER_15_57
*312 FILLER_15_6
*313 FILLER_15_69
*314 FILLER_15_77
*315 FILLER_15_84
*316 FILLER_15_96
*317 FILLER_16_109
*318 FILLER_16_121
*319 FILLER_16_133
*320 FILLER_16_139
*321 FILLER_16_141
*322 FILLER_16_153
*323 FILLER_16_165
*324 FILLER_16_177
*325 FILLER_16_189
*326 FILLER_16_195
*327 FILLER_16_197
*328 FILLER_16_209
*329 FILLER_16_21
*330 FILLER_16_221
*331 FILLER_16_233
*332 FILLER_16_245
*333 FILLER_16_251
*334 FILLER_16_253
*335 FILLER_16_265
*336 FILLER_16_27
*337 FILLER_16_277
*338 FILLER_16_289
*339 FILLER_16_29
*340 FILLER_16_297
*341 FILLER_16_3
*342 FILLER_16_40
*343 FILLER_16_50
*344 FILLER_16_60
*345 FILLER_16_68
*346 FILLER_16_80
*347 FILLER_16_85
*348 FILLER_16_9
*349 FILLER_16_97
*350 FILLER_17_105
*351 FILLER_17_11
*352 FILLER_17_111
*353 FILLER_17_113
*354 FILLER_17_125
*355 FILLER_17_137
*356 FILLER_17_149
*357 FILLER_17_161
*358 FILLER_17_167
*359 FILLER_17_169
*360 FILLER_17_181
*361 FILLER_17_193
*362 FILLER_17_205
*363 FILLER_17_217
*364 FILLER_17_22
*365 FILLER_17_223
*366 FILLER_17_225
*367 FILLER_17_237
*368 FILLER_17_249
*369 FILLER_17_261
*370 FILLER_17_273
*371 FILLER_17_279
*372 FILLER_17_281
*373 FILLER_17_293
*374 FILLER_17_3
*375 FILLER_17_33
*376 FILLER_17_37
*377 FILLER_17_41
*378 FILLER_17_51
*379 FILLER_17_55
*380 FILLER_17_57
*381 FILLER_17_69
*382 FILLER_17_81
*383 FILLER_17_93
*384 FILLER_18_109
*385 FILLER_18_121
*386 FILLER_18_133
*387 FILLER_18_139
*388 FILLER_18_141
*389 FILLER_18_153
*390 FILLER_18_16
*391 FILLER_18_165
*392 FILLER_18_177
*393 FILLER_18_189
*394 FILLER_18_195
*395 FILLER_18_197
*396 FILLER_18_20
*397 FILLER_18_209
*398 FILLER_18_221
*399 FILLER_18_233
*400 FILLER_18_24
*401 FILLER_18_245
*402 FILLER_18_251
*403 FILLER_18_253
*404 FILLER_18_265
*405 FILLER_18_277
*406 FILLER_18_289
*407 FILLER_18_29
*408 FILLER_18_297
*409 FILLER_18_3
*410 FILLER_18_41
*411 FILLER_18_52
*412 FILLER_18_63
*413 FILLER_18_75
*414 FILLER_18_83
*415 FILLER_18_85
*416 FILLER_18_97
*417 FILLER_19_101
*418 FILLER_19_109
*419 FILLER_19_113
*420 FILLER_19_125
*421 FILLER_19_137
*422 FILLER_19_149
*423 FILLER_19_161
*424 FILLER_19_167
*425 FILLER_19_169
*426 FILLER_19_181
*427 FILLER_19_193
*428 FILLER_19_205
*429 FILLER_19_21
*430 FILLER_19_217
*431 FILLER_19_223
*432 FILLER_19_225
*433 FILLER_19_237
*434 FILLER_19_249
*435 FILLER_19_261
*436 FILLER_19_273
*437 FILLER_19_279
*438 FILLER_19_281
*439 FILLER_19_293
*440 FILLER_19_3
*441 FILLER_19_32
*442 FILLER_19_42
*443 FILLER_19_49
*444 FILLER_19_55
*445 FILLER_19_65
*446 FILLER_19_77
*447 FILLER_19_89
*448 FILLER_1_103
*449 FILLER_1_111
*450 FILLER_1_113
*451 FILLER_1_125
*452 FILLER_1_137
*453 FILLER_1_149
*454 FILLER_1_15
*455 FILLER_1_161
*456 FILLER_1_167
*457 FILLER_1_169
*458 FILLER_1_181
*459 FILLER_1_193
*460 FILLER_1_205
*461 FILLER_1_217
*462 FILLER_1_223
*463 FILLER_1_225
*464 FILLER_1_237
*465 FILLER_1_249
*466 FILLER_1_261
*467 FILLER_1_273
*468 FILLER_1_279
*469 FILLER_1_281
*470 FILLER_1_293
*471 FILLER_1_3
*472 FILLER_1_36
*473 FILLER_1_48
*474 FILLER_1_57
*475 FILLER_1_63
*476 FILLER_1_67
*477 FILLER_1_79
*478 FILLER_1_91
*479 FILLER_20_109
*480 FILLER_20_121
*481 FILLER_20_133
*482 FILLER_20_139
*483 FILLER_20_141
*484 FILLER_20_153
*485 FILLER_20_16
*486 FILLER_20_165
*487 FILLER_20_177
*488 FILLER_20_189
*489 FILLER_20_195
*490 FILLER_20_197
*491 FILLER_20_209
*492 FILLER_20_221
*493 FILLER_20_233
*494 FILLER_20_245
*495 FILLER_20_251
*496 FILLER_20_253
*497 FILLER_20_265
*498 FILLER_20_277
*499 FILLER_20_289
*500 FILLER_20_297
*501 FILLER_20_3
*502 FILLER_20_34
*503 FILLER_20_42
*504 FILLER_20_55
*505 FILLER_20_65
*506 FILLER_20_77
*507 FILLER_20_83
*508 FILLER_20_85
*509 FILLER_20_9
*510 FILLER_20_97
*511 FILLER_21_105
*512 FILLER_21_111
*513 FILLER_21_113
*514 FILLER_21_125
*515 FILLER_21_137
*516 FILLER_21_14
*517 FILLER_21_149
*518 FILLER_21_161
*519 FILLER_21_167
*520 FILLER_21_169
*521 FILLER_21_181
*522 FILLER_21_193
*523 FILLER_21_205
*524 FILLER_21_217
*525 FILLER_21_223
*526 FILLER_21_225
*527 FILLER_21_237
*528 FILLER_21_249
*529 FILLER_21_261
*530 FILLER_21_27
*531 FILLER_21_273
*532 FILLER_21_279
*533 FILLER_21_281
*534 FILLER_21_293
*535 FILLER_21_3
*536 FILLER_21_37
*537 FILLER_21_49
*538 FILLER_21_55
*539 FILLER_21_57
*540 FILLER_21_69
*541 FILLER_21_81
*542 FILLER_21_93
*543 FILLER_22_109
*544 FILLER_22_121
*545 FILLER_22_133
*546 FILLER_22_139
*547 FILLER_22_141
*548 FILLER_22_153
*549 FILLER_22_165
*550 FILLER_22_177
*551 FILLER_22_189
*552 FILLER_22_195
*553 FILLER_22_197
*554 FILLER_22_209
*555 FILLER_22_221
*556 FILLER_22_233
*557 FILLER_22_24
*558 FILLER_22_245
*559 FILLER_22_251
*560 FILLER_22_253
*561 FILLER_22_265
*562 FILLER_22_277
*563 FILLER_22_289
*564 FILLER_22_297
*565 FILLER_22_3
*566 FILLER_22_37
*567 FILLER_22_41
*568 FILLER_22_45
*569 FILLER_22_54
*570 FILLER_22_61
*571 FILLER_22_73
*572 FILLER_22_81
*573 FILLER_22_85
*574 FILLER_22_9
*575 FILLER_22_97
*576 FILLER_23_105
*577 FILLER_23_111
*578 FILLER_23_113
*579 FILLER_23_125
*580 FILLER_23_137
*581 FILLER_23_149
*582 FILLER_23_15
*583 FILLER_23_161
*584 FILLER_23_167
*585 FILLER_23_169
*586 FILLER_23_181
*587 FILLER_23_193
*588 FILLER_23_205
*589 FILLER_23_217
*590 FILLER_23_223
*591 FILLER_23_225
*592 FILLER_23_237
*593 FILLER_23_249
*594 FILLER_23_261
*595 FILLER_23_27
*596 FILLER_23_273
*597 FILLER_23_279
*598 FILLER_23_281
*599 FILLER_23_293
*600 FILLER_23_3
*601 FILLER_23_35
*602 FILLER_23_39
*603 FILLER_23_51
*604 FILLER_23_55
*605 FILLER_23_57
*606 FILLER_23_69
*607 FILLER_23_81
*608 FILLER_23_93
*609 FILLER_24_109
*610 FILLER_24_121
*611 FILLER_24_133
*612 FILLER_24_139
*613 FILLER_24_141
*614 FILLER_24_153
*615 FILLER_24_165
*616 FILLER_24_177
*617 FILLER_24_18
*618 FILLER_24_189
*619 FILLER_24_195
*620 FILLER_24_197
*621 FILLER_24_209
*622 FILLER_24_221
*623 FILLER_24_233
*624 FILLER_24_245
*625 FILLER_24_251
*626 FILLER_24_253
*627 FILLER_24_26
*628 FILLER_24_265
*629 FILLER_24_277
*630 FILLER_24_289
*631 FILLER_24_29
*632 FILLER_24_297
*633 FILLER_24_38
*634 FILLER_24_53
*635 FILLER_24_6
*636 FILLER_24_65
*637 FILLER_24_77
*638 FILLER_24_83
*639 FILLER_24_85
*640 FILLER_24_97
*641 FILLER_25_105
*642 FILLER_25_111
*643 FILLER_25_113
*644 FILLER_25_125
*645 FILLER_25_137
*646 FILLER_25_149
*647 FILLER_25_15
*648 FILLER_25_161
*649 FILLER_25_167
*650 FILLER_25_169
*651 FILLER_25_181
*652 FILLER_25_193
*653 FILLER_25_205
*654 FILLER_25_217
*655 FILLER_25_223
*656 FILLER_25_225
*657 FILLER_25_237
*658 FILLER_25_249
*659 FILLER_25_261
*660 FILLER_25_273
*661 FILLER_25_279
*662 FILLER_25_281
*663 FILLER_25_293
*664 FILLER_25_3
*665 FILLER_25_31
*666 FILLER_25_43
*667 FILLER_25_55
*668 FILLER_25_57
*669 FILLER_25_69
*670 FILLER_25_81
*671 FILLER_25_93
*672 FILLER_26_109
*673 FILLER_26_121
*674 FILLER_26_133
*675 FILLER_26_139
*676 FILLER_26_141
*677 FILLER_26_15
*678 FILLER_26_153
*679 FILLER_26_165
*680 FILLER_26_177
*681 FILLER_26_189
*682 FILLER_26_195
*683 FILLER_26_197
*684 FILLER_26_209
*685 FILLER_26_221
*686 FILLER_26_233
*687 FILLER_26_245
*688 FILLER_26_251
*689 FILLER_26_253
*690 FILLER_26_265
*691 FILLER_26_27
*692 FILLER_26_277
*693 FILLER_26_289
*694 FILLER_26_29
*695 FILLER_26_297
*696 FILLER_26_3
*697 FILLER_26_38
*698 FILLER_26_50
*699 FILLER_26_62
*700 FILLER_26_74
*701 FILLER_26_82
*702 FILLER_26_85
*703 FILLER_26_97
*704 FILLER_27_105
*705 FILLER_27_111
*706 FILLER_27_113
*707 FILLER_27_125
*708 FILLER_27_13
*709 FILLER_27_137
*710 FILLER_27_149
*711 FILLER_27_161
*712 FILLER_27_167
*713 FILLER_27_169
*714 FILLER_27_181
*715 FILLER_27_193
*716 FILLER_27_205
*717 FILLER_27_217
*718 FILLER_27_223
*719 FILLER_27_225
*720 FILLER_27_237
*721 FILLER_27_249
*722 FILLER_27_25
*723 FILLER_27_261
*724 FILLER_27_273
*725 FILLER_27_279
*726 FILLER_27_281
*727 FILLER_27_293
*728 FILLER_27_37
*729 FILLER_27_49
*730 FILLER_27_55
*731 FILLER_27_57
*732 FILLER_27_69
*733 FILLER_27_81
*734 FILLER_27_93
*735 FILLER_28_109
*736 FILLER_28_121
*737 FILLER_28_133
*738 FILLER_28_139
*739 FILLER_28_141
*740 FILLER_28_15
*741 FILLER_28_153
*742 FILLER_28_165
*743 FILLER_28_177
*744 FILLER_28_189
*745 FILLER_28_195
*746 FILLER_28_197
*747 FILLER_28_209
*748 FILLER_28_221
*749 FILLER_28_233
*750 FILLER_28_245
*751 FILLER_28_251
*752 FILLER_28_253
*753 FILLER_28_265
*754 FILLER_28_27
*755 FILLER_28_277
*756 FILLER_28_289
*757 FILLER_28_29
*758 FILLER_28_297
*759 FILLER_28_3
*760 FILLER_28_41
*761 FILLER_28_53
*762 FILLER_28_65
*763 FILLER_28_77
*764 FILLER_28_83
*765 FILLER_28_85
*766 FILLER_28_97
*767 FILLER_29_105
*768 FILLER_29_11
*769 FILLER_29_111
*770 FILLER_29_113
*771 FILLER_29_125
*772 FILLER_29_137
*773 FILLER_29_149
*774 FILLER_29_161
*775 FILLER_29_167
*776 FILLER_29_169
*777 FILLER_29_181
*778 FILLER_29_193
*779 FILLER_29_205
*780 FILLER_29_217
*781 FILLER_29_223
*782 FILLER_29_225
*783 FILLER_29_23
*784 FILLER_29_237
*785 FILLER_29_249
*786 FILLER_29_261
*787 FILLER_29_273
*788 FILLER_29_279
*789 FILLER_29_281
*790 FILLER_29_293
*791 FILLER_29_3
*792 FILLER_29_35
*793 FILLER_29_47
*794 FILLER_29_55
*795 FILLER_29_57
*796 FILLER_29_69
*797 FILLER_29_81
*798 FILLER_29_93
*799 FILLER_2_109
*800 FILLER_2_121
*801 FILLER_2_133
*802 FILLER_2_139
*803 FILLER_2_141
*804 FILLER_2_153
*805 FILLER_2_165
*806 FILLER_2_177
*807 FILLER_2_189
*808 FILLER_2_195
*809 FILLER_2_197
*810 FILLER_2_209
*811 FILLER_2_221
*812 FILLER_2_23
*813 FILLER_2_233
*814 FILLER_2_245
*815 FILLER_2_251
*816 FILLER_2_253
*817 FILLER_2_265
*818 FILLER_2_27
*819 FILLER_2_277
*820 FILLER_2_289
*821 FILLER_2_297
*822 FILLER_2_3
*823 FILLER_2_45
*824 FILLER_2_57
*825 FILLER_2_69
*826 FILLER_2_81
*827 FILLER_2_85
*828 FILLER_2_97
*829 FILLER_30_109
*830 FILLER_30_121
*831 FILLER_30_133
*832 FILLER_30_139
*833 FILLER_30_141
*834 FILLER_30_15
*835 FILLER_30_153
*836 FILLER_30_165
*837 FILLER_30_177
*838 FILLER_30_189
*839 FILLER_30_195
*840 FILLER_30_197
*841 FILLER_30_209
*842 FILLER_30_221
*843 FILLER_30_233
*844 FILLER_30_245
*845 FILLER_30_251
*846 FILLER_30_253
*847 FILLER_30_265
*848 FILLER_30_27
*849 FILLER_30_277
*850 FILLER_30_289
*851 FILLER_30_29
*852 FILLER_30_297
*853 FILLER_30_3
*854 FILLER_30_41
*855 FILLER_30_53
*856 FILLER_30_65
*857 FILLER_30_77
*858 FILLER_30_83
*859 FILLER_30_85
*860 FILLER_30_97
*861 FILLER_31_105
*862 FILLER_31_111
*863 FILLER_31_113
*864 FILLER_31_125
*865 FILLER_31_137
*866 FILLER_31_149
*867 FILLER_31_15
*868 FILLER_31_161
*869 FILLER_31_167
*870 FILLER_31_169
*871 FILLER_31_181
*872 FILLER_31_193
*873 FILLER_31_205
*874 FILLER_31_217
*875 FILLER_31_223
*876 FILLER_31_225
*877 FILLER_31_237
*878 FILLER_31_249
*879 FILLER_31_261
*880 FILLER_31_27
*881 FILLER_31_273
*882 FILLER_31_279
*883 FILLER_31_281
*884 FILLER_31_293
*885 FILLER_31_3
*886 FILLER_31_35
*887 FILLER_31_42
*888 FILLER_31_54
*889 FILLER_31_57
*890 FILLER_31_69
*891 FILLER_31_81
*892 FILLER_31_93
*893 FILLER_32_109
*894 FILLER_32_121
*895 FILLER_32_133
*896 FILLER_32_139
*897 FILLER_32_141
*898 FILLER_32_15
*899 FILLER_32_153
*900 FILLER_32_165
*901 FILLER_32_177
*902 FILLER_32_189
*903 FILLER_32_195
*904 FILLER_32_197
*905 FILLER_32_209
*906 FILLER_32_221
*907 FILLER_32_233
*908 FILLER_32_245
*909 FILLER_32_251
*910 FILLER_32_253
*911 FILLER_32_265
*912 FILLER_32_27
*913 FILLER_32_277
*914 FILLER_32_289
*915 FILLER_32_29
*916 FILLER_32_297
*917 FILLER_32_3
*918 FILLER_32_41
*919 FILLER_32_53
*920 FILLER_32_65
*921 FILLER_32_77
*922 FILLER_32_83
*923 FILLER_32_85
*924 FILLER_32_97
*925 FILLER_33_105
*926 FILLER_33_111
*927 FILLER_33_113
*928 FILLER_33_125
*929 FILLER_33_137
*930 FILLER_33_149
*931 FILLER_33_15
*932 FILLER_33_161
*933 FILLER_33_167
*934 FILLER_33_169
*935 FILLER_33_181
*936 FILLER_33_193
*937 FILLER_33_205
*938 FILLER_33_217
*939 FILLER_33_223
*940 FILLER_33_225
*941 FILLER_33_237
*942 FILLER_33_249
*943 FILLER_33_261
*944 FILLER_33_27
*945 FILLER_33_273
*946 FILLER_33_279
*947 FILLER_33_281
*948 FILLER_33_293
*949 FILLER_33_3
*950 FILLER_33_39
*951 FILLER_33_51
*952 FILLER_33_55
*953 FILLER_33_57
*954 FILLER_33_69
*955 FILLER_33_81
*956 FILLER_33_93
*957 FILLER_34_109
*958 FILLER_34_121
*959 FILLER_34_133
*960 FILLER_34_139
*961 FILLER_34_141
*962 FILLER_34_15
*963 FILLER_34_153
*964 FILLER_34_165
*965 FILLER_34_177
*966 FILLER_34_189
*967 FILLER_34_195
*968 FILLER_34_197
*969 FILLER_34_209
*970 FILLER_34_221
*971 FILLER_34_233
*972 FILLER_34_245
*973 FILLER_34_251
*974 FILLER_34_253
*975 FILLER_34_265
*976 FILLER_34_27
*977 FILLER_34_277
*978 FILLER_34_289
*979 FILLER_34_29
*980 FILLER_34_297
*981 FILLER_34_3
*982 FILLER_34_41
*983 FILLER_34_53
*984 FILLER_34_65
*985 FILLER_34_77
*986 FILLER_34_83
*987 FILLER_34_85
*988 FILLER_34_97
*989 FILLER_35_105
*990 FILLER_35_111
*991 FILLER_35_113
*992 FILLER_35_125
*993 FILLER_35_137
*994 FILLER_35_149
*995 FILLER_35_161
*996 FILLER_35_167
*997 FILLER_35_169
*998 FILLER_35_18
*999 FILLER_35_181
*1000 FILLER_35_193
*1001 FILLER_35_205
*1002 FILLER_35_217
*1003 FILLER_35_223
*1004 FILLER_35_225
*1005 FILLER_35_237
*1006 FILLER_35_249
*1007 FILLER_35_261
*1008 FILLER_35_273
*1009 FILLER_35_279
*1010 FILLER_35_281
*1011 FILLER_35_293
*1012 FILLER_35_30
*1013 FILLER_35_42
*1014 FILLER_35_54
*1015 FILLER_35_57
*1016 FILLER_35_6
*1017 FILLER_35_69
*1018 FILLER_35_81
*1019 FILLER_35_93
*1020 FILLER_36_109
*1021 FILLER_36_121
*1022 FILLER_36_133
*1023 FILLER_36_139
*1024 FILLER_36_141
*1025 FILLER_36_15
*1026 FILLER_36_153
*1027 FILLER_36_165
*1028 FILLER_36_177
*1029 FILLER_36_189
*1030 FILLER_36_195
*1031 FILLER_36_197
*1032 FILLER_36_209
*1033 FILLER_36_221
*1034 FILLER_36_233
*1035 FILLER_36_245
*1036 FILLER_36_251
*1037 FILLER_36_253
*1038 FILLER_36_265
*1039 FILLER_36_27
*1040 FILLER_36_277
*1041 FILLER_36_289
*1042 FILLER_36_29
*1043 FILLER_36_297
*1044 FILLER_36_3
*1045 FILLER_36_41
*1046 FILLER_36_53
*1047 FILLER_36_65
*1048 FILLER_36_77
*1049 FILLER_36_83
*1050 FILLER_36_85
*1051 FILLER_36_97
*1052 FILLER_37_105
*1053 FILLER_37_111
*1054 FILLER_37_113
*1055 FILLER_37_125
*1056 FILLER_37_137
*1057 FILLER_37_149
*1058 FILLER_37_15
*1059 FILLER_37_161
*1060 FILLER_37_167
*1061 FILLER_37_169
*1062 FILLER_37_181
*1063 FILLER_37_193
*1064 FILLER_37_205
*1065 FILLER_37_217
*1066 FILLER_37_223
*1067 FILLER_37_225
*1068 FILLER_37_237
*1069 FILLER_37_249
*1070 FILLER_37_261
*1071 FILLER_37_27
*1072 FILLER_37_273
*1073 FILLER_37_279
*1074 FILLER_37_281
*1075 FILLER_37_293
*1076 FILLER_37_3
*1077 FILLER_37_39
*1078 FILLER_37_51
*1079 FILLER_37_55
*1080 FILLER_37_57
*1081 FILLER_37_69
*1082 FILLER_37_81
*1083 FILLER_37_93
*1084 FILLER_38_109
*1085 FILLER_38_121
*1086 FILLER_38_133
*1087 FILLER_38_139
*1088 FILLER_38_141
*1089 FILLER_38_15
*1090 FILLER_38_153
*1091 FILLER_38_165
*1092 FILLER_38_177
*1093 FILLER_38_189
*1094 FILLER_38_195
*1095 FILLER_38_197
*1096 FILLER_38_209
*1097 FILLER_38_221
*1098 FILLER_38_233
*1099 FILLER_38_245
*1100 FILLER_38_251
*1101 FILLER_38_253
*1102 FILLER_38_265
*1103 FILLER_38_27
*1104 FILLER_38_277
*1105 FILLER_38_289
*1106 FILLER_38_29
*1107 FILLER_38_297
*1108 FILLER_38_3
*1109 FILLER_38_41
*1110 FILLER_38_53
*1111 FILLER_38_65
*1112 FILLER_38_77
*1113 FILLER_38_83
*1114 FILLER_38_85
*1115 FILLER_38_97
*1116 FILLER_39_105
*1117 FILLER_39_111
*1118 FILLER_39_113
*1119 FILLER_39_125
*1120 FILLER_39_137
*1121 FILLER_39_149
*1122 FILLER_39_161
*1123 FILLER_39_167
*1124 FILLER_39_169
*1125 FILLER_39_18
*1126 FILLER_39_181
*1127 FILLER_39_193
*1128 FILLER_39_205
*1129 FILLER_39_217
*1130 FILLER_39_223
*1131 FILLER_39_225
*1132 FILLER_39_237
*1133 FILLER_39_249
*1134 FILLER_39_261
*1135 FILLER_39_273
*1136 FILLER_39_279
*1137 FILLER_39_281
*1138 FILLER_39_293
*1139 FILLER_39_30
*1140 FILLER_39_42
*1141 FILLER_39_54
*1142 FILLER_39_57
*1143 FILLER_39_6
*1144 FILLER_39_69
*1145 FILLER_39_81
*1146 FILLER_39_93
*1147 FILLER_3_105
*1148 FILLER_3_111
*1149 FILLER_3_113
*1150 FILLER_3_125
*1151 FILLER_3_137
*1152 FILLER_3_149
*1153 FILLER_3_161
*1154 FILLER_3_167
*1155 FILLER_3_169
*1156 FILLER_3_181
*1157 FILLER_3_193
*1158 FILLER_3_205
*1159 FILLER_3_217
*1160 FILLER_3_223
*1161 FILLER_3_225
*1162 FILLER_3_237
*1163 FILLER_3_249
*1164 FILLER_3_25
*1165 FILLER_3_261
*1166 FILLER_3_273
*1167 FILLER_3_279
*1168 FILLER_3_281
*1169 FILLER_3_293
*1170 FILLER_3_3
*1171 FILLER_3_45
*1172 FILLER_3_53
*1173 FILLER_3_57
*1174 FILLER_3_69
*1175 FILLER_3_81
*1176 FILLER_3_93
*1177 FILLER_40_109
*1178 FILLER_40_121
*1179 FILLER_40_133
*1180 FILLER_40_139
*1181 FILLER_40_141
*1182 FILLER_40_15
*1183 FILLER_40_153
*1184 FILLER_40_165
*1185 FILLER_40_177
*1186 FILLER_40_189
*1187 FILLER_40_195
*1188 FILLER_40_197
*1189 FILLER_40_209
*1190 FILLER_40_221
*1191 FILLER_40_233
*1192 FILLER_40_245
*1193 FILLER_40_251
*1194 FILLER_40_253
*1195 FILLER_40_265
*1196 FILLER_40_27
*1197 FILLER_40_277
*1198 FILLER_40_289
*1199 FILLER_40_29
*1200 FILLER_40_297
*1201 FILLER_40_3
*1202 FILLER_40_41
*1203 FILLER_40_53
*1204 FILLER_40_65
*1205 FILLER_40_77
*1206 FILLER_40_83
*1207 FILLER_40_85
*1208 FILLER_40_97
*1209 FILLER_41_105
*1210 FILLER_41_111
*1211 FILLER_41_113
*1212 FILLER_41_125
*1213 FILLER_41_137
*1214 FILLER_41_149
*1215 FILLER_41_15
*1216 FILLER_41_161
*1217 FILLER_41_167
*1218 FILLER_41_169
*1219 FILLER_41_181
*1220 FILLER_41_193
*1221 FILLER_41_205
*1222 FILLER_41_217
*1223 FILLER_41_223
*1224 FILLER_41_225
*1225 FILLER_41_237
*1226 FILLER_41_249
*1227 FILLER_41_261
*1228 FILLER_41_27
*1229 FILLER_41_273
*1230 FILLER_41_279
*1231 FILLER_41_281
*1232 FILLER_41_293
*1233 FILLER_41_3
*1234 FILLER_41_39
*1235 FILLER_41_51
*1236 FILLER_41_55
*1237 FILLER_41_57
*1238 FILLER_41_69
*1239 FILLER_41_81
*1240 FILLER_41_93
*1241 FILLER_42_109
*1242 FILLER_42_121
*1243 FILLER_42_133
*1244 FILLER_42_139
*1245 FILLER_42_141
*1246 FILLER_42_153
*1247 FILLER_42_165
*1248 FILLER_42_177
*1249 FILLER_42_18
*1250 FILLER_42_189
*1251 FILLER_42_195
*1252 FILLER_42_197
*1253 FILLER_42_209
*1254 FILLER_42_221
*1255 FILLER_42_233
*1256 FILLER_42_245
*1257 FILLER_42_251
*1258 FILLER_42_253
*1259 FILLER_42_26
*1260 FILLER_42_265
*1261 FILLER_42_277
*1262 FILLER_42_289
*1263 FILLER_42_29
*1264 FILLER_42_297
*1265 FILLER_42_41
*1266 FILLER_42_53
*1267 FILLER_42_6
*1268 FILLER_42_65
*1269 FILLER_42_77
*1270 FILLER_42_83
*1271 FILLER_42_85
*1272 FILLER_42_97
*1273 FILLER_43_105
*1274 FILLER_43_111
*1275 FILLER_43_113
*1276 FILLER_43_125
*1277 FILLER_43_137
*1278 FILLER_43_149
*1279 FILLER_43_15
*1280 FILLER_43_161
*1281 FILLER_43_167
*1282 FILLER_43_169
*1283 FILLER_43_181
*1284 FILLER_43_193
*1285 FILLER_43_205
*1286 FILLER_43_217
*1287 FILLER_43_223
*1288 FILLER_43_225
*1289 FILLER_43_237
*1290 FILLER_43_249
*1291 FILLER_43_261
*1292 FILLER_43_27
*1293 FILLER_43_273
*1294 FILLER_43_279
*1295 FILLER_43_281
*1296 FILLER_43_293
*1297 FILLER_43_3
*1298 FILLER_43_39
*1299 FILLER_43_51
*1300 FILLER_43_55
*1301 FILLER_43_57
*1302 FILLER_43_69
*1303 FILLER_43_81
*1304 FILLER_43_93
*1305 FILLER_44_109
*1306 FILLER_44_121
*1307 FILLER_44_133
*1308 FILLER_44_139
*1309 FILLER_44_141
*1310 FILLER_44_15
*1311 FILLER_44_153
*1312 FILLER_44_165
*1313 FILLER_44_177
*1314 FILLER_44_189
*1315 FILLER_44_195
*1316 FILLER_44_197
*1317 FILLER_44_209
*1318 FILLER_44_221
*1319 FILLER_44_233
*1320 FILLER_44_245
*1321 FILLER_44_251
*1322 FILLER_44_253
*1323 FILLER_44_265
*1324 FILLER_44_27
*1325 FILLER_44_277
*1326 FILLER_44_289
*1327 FILLER_44_29
*1328 FILLER_44_297
*1329 FILLER_44_3
*1330 FILLER_44_41
*1331 FILLER_44_53
*1332 FILLER_44_65
*1333 FILLER_44_77
*1334 FILLER_44_83
*1335 FILLER_44_85
*1336 FILLER_44_97
*1337 FILLER_45_105
*1338 FILLER_45_111
*1339 FILLER_45_113
*1340 FILLER_45_125
*1341 FILLER_45_137
*1342 FILLER_45_149
*1343 FILLER_45_15
*1344 FILLER_45_161
*1345 FILLER_45_167
*1346 FILLER_45_169
*1347 FILLER_45_181
*1348 FILLER_45_193
*1349 FILLER_45_205
*1350 FILLER_45_217
*1351 FILLER_45_223
*1352 FILLER_45_225
*1353 FILLER_45_237
*1354 FILLER_45_249
*1355 FILLER_45_261
*1356 FILLER_45_27
*1357 FILLER_45_273
*1358 FILLER_45_279
*1359 FILLER_45_281
*1360 FILLER_45_293
*1361 FILLER_45_3
*1362 FILLER_45_39
*1363 FILLER_45_51
*1364 FILLER_45_55
*1365 FILLER_45_57
*1366 FILLER_45_69
*1367 FILLER_45_81
*1368 FILLER_45_93
*1369 FILLER_46_109
*1370 FILLER_46_121
*1371 FILLER_46_133
*1372 FILLER_46_139
*1373 FILLER_46_141
*1374 FILLER_46_153
*1375 FILLER_46_165
*1376 FILLER_46_177
*1377 FILLER_46_18
*1378 FILLER_46_189
*1379 FILLER_46_195
*1380 FILLER_46_197
*1381 FILLER_46_209
*1382 FILLER_46_221
*1383 FILLER_46_233
*1384 FILLER_46_245
*1385 FILLER_46_251
*1386 FILLER_46_253
*1387 FILLER_46_26
*1388 FILLER_46_265
*1389 FILLER_46_277
*1390 FILLER_46_289
*1391 FILLER_46_29
*1392 FILLER_46_297
*1393 FILLER_46_41
*1394 FILLER_46_53
*1395 FILLER_46_6
*1396 FILLER_46_65
*1397 FILLER_46_77
*1398 FILLER_46_83
*1399 FILLER_46_85
*1400 FILLER_46_97
*1401 FILLER_47_105
*1402 FILLER_47_111
*1403 FILLER_47_113
*1404 FILLER_47_125
*1405 FILLER_47_137
*1406 FILLER_47_149
*1407 FILLER_47_15
*1408 FILLER_47_161
*1409 FILLER_47_167
*1410 FILLER_47_169
*1411 FILLER_47_181
*1412 FILLER_47_193
*1413 FILLER_47_205
*1414 FILLER_47_217
*1415 FILLER_47_223
*1416 FILLER_47_225
*1417 FILLER_47_237
*1418 FILLER_47_249
*1419 FILLER_47_261
*1420 FILLER_47_27
*1421 FILLER_47_273
*1422 FILLER_47_279
*1423 FILLER_47_281
*1424 FILLER_47_293
*1425 FILLER_47_3
*1426 FILLER_47_39
*1427 FILLER_47_51
*1428 FILLER_47_55
*1429 FILLER_47_57
*1430 FILLER_47_69
*1431 FILLER_47_81
*1432 FILLER_47_93
*1433 FILLER_48_109
*1434 FILLER_48_121
*1435 FILLER_48_133
*1436 FILLER_48_139
*1437 FILLER_48_141
*1438 FILLER_48_15
*1439 FILLER_48_153
*1440 FILLER_48_165
*1441 FILLER_48_177
*1442 FILLER_48_189
*1443 FILLER_48_195
*1444 FILLER_48_197
*1445 FILLER_48_209
*1446 FILLER_48_221
*1447 FILLER_48_233
*1448 FILLER_48_245
*1449 FILLER_48_251
*1450 FILLER_48_253
*1451 FILLER_48_265
*1452 FILLER_48_27
*1453 FILLER_48_277
*1454 FILLER_48_289
*1455 FILLER_48_29
*1456 FILLER_48_297
*1457 FILLER_48_3
*1458 FILLER_48_41
*1459 FILLER_48_53
*1460 FILLER_48_65
*1461 FILLER_48_77
*1462 FILLER_48_83
*1463 FILLER_48_85
*1464 FILLER_48_97
*1465 FILLER_49_105
*1466 FILLER_49_111
*1467 FILLER_49_113
*1468 FILLER_49_125
*1469 FILLER_49_137
*1470 FILLER_49_149
*1471 FILLER_49_15
*1472 FILLER_49_161
*1473 FILLER_49_167
*1474 FILLER_49_169
*1475 FILLER_49_181
*1476 FILLER_49_193
*1477 FILLER_49_205
*1478 FILLER_49_217
*1479 FILLER_49_223
*1480 FILLER_49_225
*1481 FILLER_49_237
*1482 FILLER_49_249
*1483 FILLER_49_261
*1484 FILLER_49_27
*1485 FILLER_49_273
*1486 FILLER_49_279
*1487 FILLER_49_281
*1488 FILLER_49_293
*1489 FILLER_49_3
*1490 FILLER_49_39
*1491 FILLER_49_51
*1492 FILLER_49_55
*1493 FILLER_49_57
*1494 FILLER_49_69
*1495 FILLER_49_81
*1496 FILLER_49_93
*1497 FILLER_4_109
*1498 FILLER_4_121
*1499 FILLER_4_133
*1500 FILLER_4_139
*1501 FILLER_4_141
*1502 FILLER_4_153
*1503 FILLER_4_165
*1504 FILLER_4_177
*1505 FILLER_4_189
*1506 FILLER_4_195
*1507 FILLER_4_197
*1508 FILLER_4_209
*1509 FILLER_4_221
*1510 FILLER_4_233
*1511 FILLER_4_24
*1512 FILLER_4_245
*1513 FILLER_4_251
*1514 FILLER_4_253
*1515 FILLER_4_265
*1516 FILLER_4_277
*1517 FILLER_4_289
*1518 FILLER_4_29
*1519 FILLER_4_297
*1520 FILLER_4_3
*1521 FILLER_4_53
*1522 FILLER_4_65
*1523 FILLER_4_7
*1524 FILLER_4_77
*1525 FILLER_4_83
*1526 FILLER_4_85
*1527 FILLER_4_97
*1528 FILLER_50_109
*1529 FILLER_50_121
*1530 FILLER_50_133
*1531 FILLER_50_139
*1532 FILLER_50_141
*1533 FILLER_50_153
*1534 FILLER_50_165
*1535 FILLER_50_177
*1536 FILLER_50_18
*1537 FILLER_50_189
*1538 FILLER_50_195
*1539 FILLER_50_197
*1540 FILLER_50_209
*1541 FILLER_50_221
*1542 FILLER_50_233
*1543 FILLER_50_245
*1544 FILLER_50_251
*1545 FILLER_50_253
*1546 FILLER_50_26
*1547 FILLER_50_265
*1548 FILLER_50_277
*1549 FILLER_50_289
*1550 FILLER_50_29
*1551 FILLER_50_297
*1552 FILLER_50_41
*1553 FILLER_50_53
*1554 FILLER_50_6
*1555 FILLER_50_65
*1556 FILLER_50_77
*1557 FILLER_50_83
*1558 FILLER_50_85
*1559 FILLER_50_97
*1560 FILLER_51_105
*1561 FILLER_51_111
*1562 FILLER_51_113
*1563 FILLER_51_125
*1564 FILLER_51_137
*1565 FILLER_51_149
*1566 FILLER_51_15
*1567 FILLER_51_161
*1568 FILLER_51_167
*1569 FILLER_51_169
*1570 FILLER_51_181
*1571 FILLER_51_193
*1572 FILLER_51_205
*1573 FILLER_51_217
*1574 FILLER_51_223
*1575 FILLER_51_225
*1576 FILLER_51_237
*1577 FILLER_51_249
*1578 FILLER_51_261
*1579 FILLER_51_27
*1580 FILLER_51_273
*1581 FILLER_51_279
*1582 FILLER_51_281
*1583 FILLER_51_293
*1584 FILLER_51_3
*1585 FILLER_51_39
*1586 FILLER_51_51
*1587 FILLER_51_55
*1588 FILLER_51_57
*1589 FILLER_51_69
*1590 FILLER_51_81
*1591 FILLER_51_93
*1592 FILLER_52_109
*1593 FILLER_52_121
*1594 FILLER_52_133
*1595 FILLER_52_139
*1596 FILLER_52_141
*1597 FILLER_52_15
*1598 FILLER_52_153
*1599 FILLER_52_165
*1600 FILLER_52_177
*1601 FILLER_52_189
*1602 FILLER_52_195
*1603 FILLER_52_197