*SPEF "ieee 1481-1999"
*DESIGN "prog_melody_gen"
*DATE "11:11:11 Fri 11 11, 1111"
*VENDOR "OpenRCX"
*PROGRAM "Parallel Extraction"
*VERSION "1.0"
*DESIGN_FLOW "NAME_SCOPE LOCAL" "PIN_CAP NONE"
*DIVIDER /
*DELIMITER :
*BUS_DELIMITER []
*T_UNIT 1 NS
*C_UNIT 1 PF
*R_UNIT 1 OHM
*L_UNIT 1 HENRY

*NAME_MAP
*1 io_in[0]
*2 io_in[1]
*3 io_in[2]
*4 io_in[3]
*5 io_in[4]
*6 io_in[5]
*7 io_in[6]
*8 io_in[7]
*9 io_out[0]
*10 net197
*11 net198
*12 net199
*13 net200
*14 net201
*15 net202
*16 net203
*19 _0000_
*20 _0001_
*21 _0002_
*22 _0003_
*23 _0004_
*24 _0005_
*25 _0006_
*26 _0007_
*27 _0008_
*28 _0009_
*29 _0010_
*30 _0011_
*31 _0012_
*32 _0013_
*33 _0014_
*34 _0015_
*35 _0016_
*36 _0017_
*37 _0018_
*38 _0019_
*39 _0020_
*40 _0021_
*41 _0022_
*42 _0023_
*43 _0024_
*44 _0025_
*45 _0026_
*46 _0027_
*47 _0028_
*48 _0029_
*49 _0030_
*50 _0031_
*51 _0032_
*52 _0033_
*53 _0034_
*54 _0035_
*55 _0036_
*56 _0037_
*57 _0038_
*58 _0039_
*59 _0040_
*60 _0041_
*61 _0042_
*62 _0043_
*63 _0044_
*64 _0045_
*65 _0046_
*66 _0047_
*67 _0048_
*68 _0049_
*69 _0050_
*70 _0051_
*71 _0052_
*72 _0053_
*73 _0054_
*74 _0055_
*75 _0056_
*76 _0057_
*77 _0058_
*78 _0059_
*79 _0060_
*80 _0061_
*81 _0062_
*82 _0063_
*83 _0064_
*84 _0065_
*85 _0066_
*86 _0067_
*87 _0068_
*88 _0069_
*89 _0070_
*90 _0071_
*91 _0072_
*92 _0073_
*93 _0074_
*94 _0075_
*95 _0076_
*96 _0077_
*97 _0078_
*98 _0079_
*99 _0080_
*100 _0081_
*101 _0082_
*102 _0083_
*103 _0084_
*104 _0085_
*105 _0086_
*106 _0087_
*107 _0088_
*108 _0089_
*109 _0090_
*110 _0091_
*111 _0092_
*112 _0093_
*113 _0094_
*114 _0095_
*115 _0096_
*116 _0097_
*117 _0098_
*118 _0099_
*119 _0100_
*120 _0101_
*121 _0102_
*122 _0103_
*123 _0107_
*124 _0108_
*125 _0109_
*126 _0110_
*127 _0111_
*128 _0112_
*129 _0113_
*130 _0114_
*131 _0115_
*132 _0116_
*133 _0117_
*134 _0118_
*135 _0119_
*136 _0120_
*137 _0121_
*138 _0122_
*139 _0123_
*140 _0124_
*141 _0125_
*142 _0126_
*143 _0127_
*144 _0128_
*145 _0129_
*146 _0130_
*147 _0131_
*148 _0132_
*149 _0133_
*150 _0134_
*151 _0135_
*152 _0136_
*153 _0137_
*154 _0138_
*155 _0139_
*156 _0140_
*157 _0141_
*158 _0142_
*159 _0143_
*160 _0144_
*161 _0145_
*162 _0146_
*163 _0147_
*164 _0148_
*165 _0149_
*166 _0150_
*167 _0151_
*168 _0152_
*169 _0153_
*170 _0154_
*171 _0155_
*172 _0156_
*173 _0157_
*174 _0158_
*175 _0159_
*176 _0160_
*177 _0161_
*178 _0162_
*179 _0163_
*180 _0164_
*181 _0165_
*182 _0166_
*183 _0167_
*184 _0168_
*185 _0169_
*186 _0170_
*187 _0171_
*188 _0172_
*189 _0173_
*190 _0174_
*191 _0175_
*192 _0176_
*193 _0177_
*194 _0178_
*195 _0179_
*196 _0180_
*197 _0181_
*198 _0182_
*199 _0183_
*200 _0184_
*201 _0185_
*202 _0186_
*203 _0187_
*204 _0188_
*205 _0189_
*206 _0190_
*207 _0191_
*208 _0192_
*209 _0193_
*210 _0194_
*211 _0195_
*212 _0196_
*213 _0197_
*214 _0198_
*215 _0199_
*216 _0200_
*217 _0201_
*218 _0202_
*219 _0203_
*220 _0204_
*221 _0205_
*222 _0206_
*223 _0207_
*224 _0208_
*225 _0209_
*226 _0210_
*227 _0211_
*228 _0212_
*229 _0213_
*230 _0214_
*231 _0215_
*232 _0216_
*233 _0217_
*234 _0218_
*235 _0219_
*236 _0220_
*237 _0221_
*238 _0222_
*239 _0223_
*240 _0224_
*241 _0225_
*242 _0226_
*243 _0227_
*244 _0228_
*245 _0229_
*246 _0230_
*247 _0231_
*248 _0232_
*249 _0233_
*250 _0234_
*251 _0235_
*252 _0236_
*253 _0237_
*254 _0238_
*255 _0239_
*256 _0240_
*257 _0241_
*258 _0242_
*259 _0243_
*260 _0244_
*261 _0245_
*262 _0246_
*263 _0247_
*264 _0248_
*265 _0249_
*266 _0250_
*267 _0251_
*268 _0252_
*269 _0253_
*270 _0254_
*271 _0255_
*272 _0256_
*273 _0257_
*274 _0258_
*275 _0259_
*276 _0260_
*277 _0261_
*278 _0262_
*279 _0263_
*280 _0264_
*281 _0265_
*282 _0266_
*283 _0267_
*284 _0268_
*285 _0269_
*286 _0270_
*287 _0271_
*288 _0272_
*289 _0273_
*290 _0274_
*291 _0275_
*292 _0276_
*293 _0277_
*294 _0278_
*295 _0279_
*296 _0280_
*297 _0281_
*298 _0282_
*299 _0283_
*300 _0284_
*301 _0285_
*302 _0286_
*303 _0287_
*304 _0288_
*305 _0289_
*306 _0290_
*307 _0291_
*308 _0292_
*309 _0293_
*310 _0294_
*311 _0295_
*312 _0296_
*313 _0297_
*314 _0298_
*315 _0299_
*316 _0300_
*317 _0301_
*318 _0302_
*319 _0303_
*320 _0304_
*321 _0305_
*322 _0306_
*323 _0307_
*324 _0308_
*325 _0309_
*326 _0310_
*327 _0311_
*328 _0312_
*329 _0313_
*330 _0314_
*331 _0315_
*332 _0316_
*333 _0317_
*334 _0318_
*335 _0319_
*336 _0320_
*337 _0321_
*338 _0322_
*339 _0323_
*340 _0324_
*341 _0325_
*342 _0326_
*343 _0327_
*344 _0328_
*345 _0329_
*346 _0330_
*347 _0331_
*348 _0332_
*349 _0333_
*350 _0334_
*351 _0335_
*352 _0336_
*353 _0337_
*354 _0338_
*355 _0339_
*356 _0340_
*357 _0341_
*358 _0342_
*359 _0343_
*360 _0344_
*361 _0345_
*362 _0346_
*363 _0347_
*364 _0348_
*365 _0349_
*366 _0350_
*367 _0351_
*368 _0352_
*369 _0353_
*370 _0354_
*371 _0355_
*372 _0356_
*373 _0357_
*374 _0358_
*375 _0359_
*376 _0360_
*377 _0361_
*378 _0362_
*379 _0363_
*380 _0364_
*381 _0365_
*382 _0366_
*383 _0367_
*384 _0368_
*385 _0369_
*386 _0370_
*387 _0371_
*388 _0372_
*389 _0373_
*390 _0374_
*391 _0375_
*392 _0376_
*393 _0377_
*394 _0378_
*395 _0379_
*396 _0380_
*397 _0381_
*398 _0382_
*399 _0383_
*400 _0384_
*401 _0385_
*402 _0386_
*403 _0387_
*404 _0388_
*405 _0389_
*406 _0390_
*407 _0391_
*408 _0392_
*409 _0393_
*410 _0394_
*411 _0395_
*412 _0396_
*413 _0397_
*414 _0398_
*415 _0399_
*416 _0400_
*417 _0401_
*418 _0402_
*419 _0403_
*420 _0404_
*421 _0405_
*422 _0406_
*423 _0407_
*424 _0408_
*425 _0409_
*426 _0410_
*427 _0411_
*428 _0412_
*429 _0413_
*430 _0414_
*431 _0415_
*432 _0416_
*433 _0417_
*434 _0418_
*435 _0419_
*436 _0420_
*437 _0421_
*438 _0422_
*439 _0423_
*440 _0424_
*441 _0425_
*442 _0426_
*443 _0427_
*444 _0428_
*445 _0429_
*446 _0430_
*447 _0431_
*448 _0432_
*449 _0433_
*450 _0434_
*451 _0435_
*452 _0436_
*453 _0437_
*454 _0438_
*455 _0439_
*456 _0440_
*457 _0441_
*458 _0442_
*459 _0443_
*460 _0444_
*461 _0445_
*462 _0446_
*463 _0447_
*464 _0448_
*465 _0449_
*466 _0450_
*467 _0451_
*468 _0452_
*469 _0453_
*470 _0454_
*471 _0455_
*472 _0456_
*473 _0457_
*474 _0458_
*475 _0459_
*476 _0460_
*477 _0461_
*478 _0462_
*479 _0463_
*480 _0464_
*481 _0465_
*482 _0466_
*483 _0467_
*484 _0468_
*485 _0469_
*486 _0470_
*487 _0471_
*488 _0472_
*489 _0473_
*490 _0474_
*491 _0475_
*492 _0476_
*493 _0477_
*494 _0478_
*495 _0479_
*496 _0480_
*497 _0481_
*498 _0482_
*499 _0483_
*500 _0484_
*501 _0485_
*502 _0486_
*503 _0487_
*504 _0488_
*505 _0489_
*506 _0490_
*507 _0491_
*508 _0492_
*509 _0493_
*510 _0494_
*511 _0495_
*512 _0496_
*513 _0497_
*514 _0498_
*515 _0499_
*516 _0500_
*517 _0501_
*518 _0502_
*519 _0503_
*520 _0504_
*521 _0505_
*522 _0506_
*523 _0507_
*524 _0508_
*525 _0509_
*526 _0510_
*527 _0511_
*528 _0512_
*529 _0513_
*530 _0514_
*531 _0515_
*532 _0516_
*533 _0517_
*534 _0518_
*535 _0519_
*536 _0520_
*537 _0521_
*538 _0522_
*539 _0523_
*540 _0524_
*541 _0525_
*542 _0526_
*543 _0527_
*544 _0528_
*545 _0529_
*546 _0530_
*547 _0531_
*548 _0532_
*549 _0533_
*550 _0534_
*551 _0535_
*552 _0536_
*553 _0537_
*554 _0538_
*555 _0539_
*556 _0540_
*557 _0541_
*558 _0542_
*559 _0543_
*560 _0544_
*561 _0545_
*562 _0546_
*563 _0547_
*564 _0548_
*565 _0549_
*566 _0550_
*567 _0551_
*568 _0552_
*569 _0553_
*570 _0554_
*571 _0555_
*572 _0556_
*573 _0557_
*574 _0558_
*575 _0559_
*576 _0560_
*577 _0561_
*578 _0562_
*579 _0563_
*580 _0564_
*581 _0565_
*582 _0566_
*583 _0567_
*584 _0568_
*585 _0569_
*586 _0570_
*587 _0571_
*588 _0572_
*589 _0573_
*590 _0574_
*591 _0575_
*592 _0576_
*593 _0577_
*594 _0578_
*595 _0579_
*596 _0580_
*597 _0581_
*598 _0582_
*599 _0583_
*600 _0584_
*601 _0585_
*602 _0586_
*603 _0587_
*604 _0588_
*605 _0589_
*606 _0590_
*607 _0591_
*608 _0592_
*609 _0593_
*610 _0594_
*611 _0595_
*612 _0596_
*613 _0597_
*614 _0598_
*615 _0599_
*616 _0600_
*617 _0601_
*618 _0602_
*619 _0603_
*620 _0604_
*621 _0605_
*622 _0606_
*623 _0607_
*624 _0608_
*625 _0609_
*626 _0610_
*627 _0611_
*628 _0612_
*629 _0613_
*630 _0614_
*631 _0615_
*632 _0616_
*633 _0617_
*634 _0618_
*635 _0619_
*636 _0620_
*637 _0621_
*638 _0622_
*639 _0623_
*640 _0624_
*641 _0625_
*642 _0626_
*643 _0627_
*644 _0628_
*645 _0629_
*646 _0630_
*647 _0631_
*648 _0632_
*649 _0633_
*650 _0634_
*651 _0635_
*652 _0636_
*653 _0637_
*654 _0638_
*655 _0639_
*656 _0640_
*657 _0641_
*658 _0642_
*659 _0643_
*660 _0644_
*661 _0645_
*662 _0646_
*663 _0647_
*664 _0648_
*665 _0649_
*666 _0650_
*667 _0651_
*668 _0652_
*669 _0653_
*670 _0654_
*671 _0655_
*672 _0656_
*673 _0657_
*674 _0658_
*675 _0659_
*676 _0660_
*677 _0661_
*678 _0662_
*679 _0663_
*680 _0664_
*681 _0665_
*682 _0666_
*683 _0667_
*684 _0668_
*685 _0669_
*686 _0670_
*687 _0671_
*688 _0672_
*689 _0673_
*690 _0674_
*691 _0675_
*692 _0676_
*693 _0677_
*694 _0678_
*695 _0679_
*696 clknet_0_io_in[0]
*697 clknet_2_0__leaf_io_in[0]
*698 clknet_2_1__leaf_io_in[0]
*699 clknet_2_2__leaf_io_in[0]
*700 clknet_2_3__leaf_io_in[0]
*701 curr_tone\[0\]
*702 curr_tone\[1\]
*703 curr_tone\[2\]
*704 curr_tone\[3\]
*705 curr_tone\[4\]
*706 div_tmr\[0\]
*707 div_tmr\[1\]
*708 div_tmr\[2\]
*709 div_tmr\[3\]
*710 div_tmr\[4\]
*711 div_tmr\[5\]
*712 div_tmr\[6\]
*713 div_tmr\[7\]
*714 div_tmr\[8\]
*715 div_tmr\[9\]
*716 mel_gen\[0\]
*717 mel_gen\[1\]
*718 mel_gen\[2\]
*719 mel_gen\[3\]
*720 mel_gen\[4\]
*721 mel_gen\[5\]
*722 mel_gen\[6\]
*723 mel_gen\[7\]
*724 mel_out
*725 net1
*726 net10
*727 net100
*728 net101
*729 net102
*730 net103
*731 net104
*732 net105
*733 net106
*734 net107
*735 net108
*736 net109
*737 net11
*738 net110
*739 net111
*740 net112
*741 net113
*742 net114
*743 net115
*744 net116
*745 net117
*746 net118
*747 net119
*748 net12
*749 net120
*750 net121
*751 net122
*752 net123
*753 net124
*754 net125
*755 net126
*756 net127
*757 net128
*758 net129
*759 net13
*760 net130
*761 net131
*762 net132
*763 net133
*764 net134
*765 net135
*766 net136
*767 net137
*768 net138
*769 net139
*770 net14
*771 net140
*772 net141
*773 net142
*774 net143
*775 net144
*776 net145
*777 net146
*778 net147
*779 net148
*780 net149
*781 net15
*782 net150
*783 net151
*784 net152
*785 net153
*786 net154
*787 net155
*788 net156
*789 net157
*790 net158
*791 net159
*792 net16
*793 net160
*794 net161
*795 net162
*796 net163
*797 net164
*798 net165
*799 net166
*800 net167
*801 net168
*802 net169
*803 net17
*804 net170
*805 net171
*806 net172
*807 net173
*808 net174
*809 net175
*810 net176
*811 net177
*812 net178
*813 net179
*814 net18
*815 net180
*816 net181
*817 net182
*818 net183
*819 net184
*820 net185
*821 net186
*822 net187
*823 net188
*824 net189
*825 net19
*826 net190
*827 net191
*828 net192
*829 net193
*830 net194
*831 net195
*832 net196
*833 net2
*834 net20
*835 net204
*836 net205
*837 net206
*838 net207
*839 net208
*840 net209
*841 net21
*842 net22
*843 net23
*844 net24
*845 net25
*846 net26
*847 net27
*848 net28
*849 net29
*850 net3
*851 net30
*852 net31
*853 net32
*854 net33
*855 net34
*856 net35
*857 net36
*858 net37
*859 net38
*860 net39
*861 net4
*862 net40
*863 net41
*864 net42
*865 net43
*866 net44
*867 net45
*868 net46
*869 net47
*870 net48
*871 net49
*872 net5
*873 net50
*874 net51
*875 net52
*876 net53
*877 net54
*878 net55
*879 net56
*880 net57
*881 net58
*882 net59
*883 net6
*884 net60
*885 net61
*886 net62
*887 net63
*888 net64
*889 net65
*890 net66
*891 net67
*892 net68
*893 net69
*894 net7
*895 net70
*896 net71
*897 net72
*898 net73
*899 net74
*900 net75
*901 net76
*902 net77
*903 net78
*904 net79
*905 net8
*906 net80
*907 net81
*908 net82
*909 net83
*910 net84
*911 net85
*912 net86
*913 net87
*914 net88
*915 net89
*916 net9
*917 net90
*918 net91
*919 net92
*920 net93
*921 net94
*922 net95
*923 net96
*924 net97
*925 net98
*926 net99
*927 pgm_word_sel\[0\]
*928 pgm_word_sel\[1\]
*929 pgm_word_sel\[2\]
*930 pgm_word_sel\[3\]
*931 pgm_word_sel\[4\]
*932 pgm_word_sel\[5\]
*933 pgm_write_data\[0\]
*934 pgm_write_data\[1\]
*935 pgm_write_data\[2\]
*936 pgm_write_data\[3\]
*937 state
*938 tick
*939 tone_seq\[0\]
*940 tone_seq\[1\]
*941 tone_seq\[2\]
*942 tone_seq\[3\]
*943 tone_seq\[4\]
*944 tone_seq\[5\]
*945 words\[0\]\.bits\[0\]\.lat_o
*946 words\[0\]\.bits\[1\]\.lat_o
*947 words\[0\]\.bits\[2\]\.lat_o
*948 words\[0\]\.bits\[3\]\.lat_o
*949 words\[0\]\.word_we
*950 words\[10\]\.bits\[0\]\.lat_o
*951 words\[10\]\.bits\[1\]\.lat_o
*952 words\[10\]\.bits\[2\]\.lat_o
*953 words\[10\]\.bits\[3\]\.lat_o
*954 words\[10\]\.word_we
*955 words\[11\]\.bits\[0\]\.lat_o
*956 words\[11\]\.bits\[1\]\.lat_o
*957 words\[11\]\.bits\[2\]\.lat_o
*958 words\[11\]\.bits\[3\]\.lat_o
*959 words\[11\]\.word_we
*960 words\[12\]\.bits\[0\]\.lat_o
*961 words\[12\]\.bits\[1\]\.lat_o
*962 words\[12\]\.bits\[2\]\.lat_o
*963 words\[12\]\.bits\[3\]\.lat_o
*964 words\[12\]\.word_we
*965 words\[13\]\.bits\[0\]\.lat_o
*966 words\[13\]\.bits\[1\]\.lat_o
*967 words\[13\]\.bits\[2\]\.lat_o
*968 words\[13\]\.bits\[3\]\.lat_o
*969 words\[13\]\.word_we
*970 words\[14\]\.bits\[0\]\.lat_o
*971 words\[14\]\.bits\[1\]\.lat_o
*972 words\[14\]\.bits\[2\]\.lat_o
*973 words\[14\]\.bits\[3\]\.lat_o
*974 words\[14\]\.word_we
*975 words\[15\]\.bits\[0\]\.lat_o
*976 words\[15\]\.bits\[1\]\.lat_o
*977 words\[15\]\.bits\[2\]\.lat_o
*978 words\[15\]\.bits\[3\]\.lat_o
*979 words\[15\]\.word_we
*980 words\[16\]\.bits\[0\]\.lat_o
*981 words\[16\]\.bits\[1\]\.lat_o
*982 words\[16\]\.bits\[2\]\.lat_o
*983 words\[16\]\.bits\[3\]\.lat_o
*984 words\[16\]\.word_we
*985 words\[17\]\.bits\[0\]\.lat_o
*986 words\[17\]\.bits\[1\]\.lat_o
*987 words\[17\]\.bits\[2\]\.lat_o
*988 words\[17\]\.bits\[3\]\.lat_o
*989 words\[17\]\.word_we
*990 words\[18\]\.bits\[0\]\.lat_o
*991 words\[18\]\.bits\[1\]\.lat_o
*992 words\[18\]\.bits\[2\]\.lat_o
*993 words\[18\]\.bits\[3\]\.lat_o
*994 words\[18\]\.word_we
*995 words\[19\]\.bits\[0\]\.lat_o
*996 words\[19\]\.bits\[1\]\.lat_o
*997 words\[19\]\.bits\[2\]\.lat_o
*998 words\[19\]\.bits\[3\]\.lat_o
*999 words\[19\]\.word_we
*1000 words\[1\]\.bits\[0\]\.lat_o
*1001 words\[1\]\.bits\[1\]\.lat_o
*1002 words\[1\]\.bits\[2\]\.lat_o
*1003 words\[1\]\.bits\[3\]\.lat_o
*1004 words\[1\]\.word_we
*1005 words\[20\]\.bits\[0\]\.lat_o
*1006 words\[20\]\.bits\[1\]\.lat_o
*1007 words\[20\]\.bits\[2\]\.lat_o
*1008 words\[20\]\.bits\[3\]\.lat_o
*1009 words\[20\]\.word_we
*1010 words\[21\]\.bits\[0\]\.lat_o
*1011 words\[21\]\.bits\[1\]\.lat_o
*1012 words\[21\]\.bits\[2\]\.lat_o
*1013 words\[21\]\.bits\[3\]\.lat_o
*1014 words\[21\]\.word_we
*1015 words\[22\]\.bits\[0\]\.lat_o
*1016 words\[22\]\.bits\[1\]\.lat_o
*1017 words\[22\]\.bits\[2\]\.lat_o
*1018 words\[22\]\.bits\[3\]\.lat_o
*1019 words\[22\]\.word_we
*1020 words\[23\]\.bits\[0\]\.lat_o
*1021 words\[23\]\.bits\[1\]\.lat_o
*1022 words\[23\]\.bits\[2\]\.lat_o
*1023 words\[23\]\.bits\[3\]\.lat_o
*1024 words\[23\]\.word_we
*1025 words\[24\]\.bits\[0\]\.lat_o
*1026 words\[24\]\.bits\[1\]\.lat_o
*1027 words\[24\]\.bits\[2\]\.lat_o
*1028 words\[24\]\.bits\[3\]\.lat_o
*1029 words\[24\]\.word_we
*1030 words\[25\]\.bits\[0\]\.lat_o
*1031 words\[25\]\.bits\[1\]\.lat_o
*1032 words\[25\]\.bits\[2\]\.lat_o
*1033 words\[25\]\.bits\[3\]\.lat_o
*1034 words\[25\]\.word_we
*1035 words\[26\]\.bits\[0\]\.lat_o
*1036 words\[26\]\.bits\[1\]\.lat_o
*1037 words\[26\]\.bits\[2\]\.lat_o
*1038 words\[26\]\.bits\[3\]\.lat_o
*1039 words\[26\]\.word_we
*1040 words\[27\]\.bits\[0\]\.lat_o
*1041 words\[27\]\.bits\[1\]\.lat_o
*1042 words\[27\]\.bits\[2\]\.lat_o
*1043 words\[27\]\.bits\[3\]\.lat_o
*1044 words\[27\]\.word_we
*1045 words\[28\]\.bits\[0\]\.lat_o
*1046 words\[28\]\.bits\[1\]\.lat_o
*1047 words\[28\]\.bits\[2\]\.lat_o
*1048 words\[28\]\.bits\[3\]\.lat_o
*1049 words\[28\]\.word_we
*1050 words\[29\]\.bits\[0\]\.lat_o
*1051 words\[29\]\.bits\[1\]\.lat_o
*1052 words\[29\]\.bits\[2\]\.lat_o
*1053 words\[29\]\.bits\[3\]\.lat_o
*1054 words\[29\]\.word_we
*1055 words\[2\]\.bits\[0\]\.lat_o
*1056 words\[2\]\.bits\[1\]\.lat_o
*1057 words\[2\]\.bits\[2\]\.lat_o
*1058 words\[2\]\.bits\[3\]\.lat_o
*1059 words\[2\]\.word_we
*1060 words\[30\]\.bits\[0\]\.lat_o
*1061 words\[30\]\.bits\[1\]\.lat_o
*1062 words\[30\]\.bits\[2\]\.lat_o
*1063 words\[30\]\.bits\[3\]\.lat_o
*1064 words\[30\]\.word_we
*1065 words\[31\]\.bits\[0\]\.lat_o
*1066 words\[31\]\.bits\[1\]\.lat_o
*1067 words\[31\]\.bits\[2\]\.lat_o
*1068 words\[31\]\.bits\[3\]\.lat_o
*1069 words\[31\]\.word_we
*1070 words\[32\]\.bits\[0\]\.lat_o
*1071 words\[32\]\.bits\[1\]\.lat_o
*1072 words\[32\]\.bits\[2\]\.lat_o
*1073 words\[32\]\.bits\[3\]\.lat_o
*1074 words\[32\]\.word_we
*1075 words\[33\]\.bits\[0\]\.lat_o
*1076 words\[33\]\.bits\[1\]\.lat_o
*1077 words\[33\]\.bits\[2\]\.lat_o
*1078 words\[33\]\.bits\[3\]\.lat_o
*1079 words\[33\]\.word_we
*1080 words\[34\]\.bits\[0\]\.lat_o
*1081 words\[34\]\.bits\[1\]\.lat_o
*1082 words\[34\]\.bits\[2\]\.lat_o
*1083 words\[34\]\.bits\[3\]\.lat_o
*1084 words\[34\]\.word_we
*1085 words\[35\]\.bits\[0\]\.lat_o
*1086 words\[35\]\.bits\[1\]\.lat_o
*1087 words\[35\]\.bits\[2\]\.lat_o
*1088 words\[35\]\.bits\[3\]\.lat_o
*1089 words\[35\]\.word_we
*1090 words\[36\]\.bits\[0\]\.lat_o
*1091 words\[36\]\.bits\[1\]\.lat_o
*1092 words\[36\]\.bits\[2\]\.lat_o
*1093 words\[36\]\.bits\[3\]\.lat_o
*1094 words\[36\]\.word_we
*1095 words\[37\]\.bits\[0\]\.lat_o
*1096 words\[37\]\.bits\[1\]\.lat_o
*1097 words\[37\]\.bits\[2\]\.lat_o
*1098 words\[37\]\.bits\[3\]\.lat_o
*1099 words\[37\]\.word_we
*1100 words\[38\]\.bits\[0\]\.lat_o
*1101 words\[38\]\.bits\[1\]\.lat_o
*1102 words\[38\]\.bits\[2\]\.lat_o
*1103 words\[38\]\.bits\[3\]\.lat_o
*1104 words\[38\]\.word_we
*1105 words\[39\]\.bits\[0\]\.lat_o
*1106 words\[39\]\.bits\[1\]\.lat_o
*1107 words\[39\]\.bits\[2\]\.lat_o
*1108 words\[39\]\.bits\[3\]\.lat_o
*1109 words\[39\]\.word_we
*1110 words\[3\]\.bits\[0\]\.lat_o
*1111 words\[3\]\.bits\[1\]\.lat_o
*1112 words\[3\]\.bits\[2\]\.lat_o
*1113 words\[3\]\.bits\[3\]\.lat_o
*1114 words\[3\]\.word_we
*1115 words\[40\]\.bits\[0\]\.lat_o
*1116 words\[40\]\.bits\[1\]\.lat_o
*1117 words\[40\]\.bits\[2\]\.lat_o
*1118 words\[40\]\.bits\[3\]\.lat_o
*1119 words\[40\]\.word_we
*1120 words\[41\]\.bits\[0\]\.lat_o
*1121 words\[41\]\.bits\[1\]\.lat_o
*1122 words\[41\]\.bits\[2\]\.lat_o
*1123 words\[41\]\.bits\[3\]\.lat_o
*1124 words\[41\]\.word_we
*1125 words\[42\]\.bits\[0\]\.lat_o
*1126 words\[42\]\.bits\[1\]\.lat_o
*1127 words\[42\]\.bits\[2\]\.lat_o
*1128 words\[42\]\.bits\[3\]\.lat_o
*1129 words\[42\]\.word_we
*1130 words\[43\]\.bits\[0\]\.lat_o
*1131 words\[43\]\.bits\[1\]\.lat_o
*1132 words\[43\]\.bits\[2\]\.lat_o
*1133 words\[43\]\.bits\[3\]\.lat_o
*1134 words\[43\]\.word_we
*1135 words\[44\]\.bits\[0\]\.lat_o
*1136 words\[44\]\.bits\[1\]\.lat_o
*1137 words\[44\]\.bits\[2\]\.lat_o
*1138 words\[44\]\.bits\[3\]\.lat_o
*1139 words\[44\]\.word_we
*1140 words\[45\]\.bits\[0\]\.lat_o
*1141 words\[45\]\.bits\[1\]\.lat_o
*1142 words\[45\]\.bits\[2\]\.lat_o
*1143 words\[45\]\.bits\[3\]\.lat_o
*1144 words\[45\]\.word_we
*1145 words\[46\]\.bits\[0\]\.lat_o
*1146 words\[46\]\.bits\[1\]\.lat_o
*1147 words\[46\]\.bits\[2\]\.lat_o
*1148 words\[46\]\.bits\[3\]\.lat_o
*1149 words\[46\]\.word_we
*1150 words\[47\]\.bits\[0\]\.lat_o
*1151 words\[47\]\.bits\[1\]\.lat_o
*1152 words\[47\]\.bits\[2\]\.lat_o
*1153 words\[47\]\.bits\[3\]\.lat_o
*1154 words\[47\]\.word_we
*1155 words\[48\]\.bits\[0\]\.lat_o
*1156 words\[48\]\.bits\[1\]\.lat_o
*1157 words\[48\]\.bits\[2\]\.lat_o
*1158 words\[48\]\.bits\[3\]\.lat_o
*1159 words\[48\]\.word_we
*1160 words\[49\]\.bits\[0\]\.lat_o
*1161 words\[49\]\.bits\[1\]\.lat_o
*1162 words\[49\]\.bits\[2\]\.lat_o
*1163 words\[49\]\.bits\[3\]\.lat_o
*1164 words\[49\]\.word_we
*1165 words\[4\]\.bits\[0\]\.lat_o
*1166 words\[4\]\.bits\[1\]\.lat_o
*1167 words\[4\]\.bits\[2\]\.lat_o
*1168 words\[4\]\.bits\[3\]\.lat_o
*1169 words\[4\]\.word_we
*1170 words\[50\]\.bits\[0\]\.lat_o
*1171 words\[50\]\.bits\[1\]\.lat_o
*1172 words\[50\]\.bits\[2\]\.lat_o
*1173 words\[50\]\.bits\[3\]\.lat_o
*1174 words\[50\]\.word_we
*1175 words\[51\]\.bits\[0\]\.lat_o
*1176 words\[51\]\.bits\[1\]\.lat_o
*1177 words\[51\]\.bits\[2\]\.lat_o
*1178 words\[51\]\.bits\[3\]\.lat_o
*1179 words\[51\]\.word_we
*1180 words\[52\]\.bits\[0\]\.lat_o
*1181 words\[52\]\.bits\[1\]\.lat_o
*1182 words\[52\]\.bits\[2\]\.lat_o
*1183 words\[52\]\.bits\[3\]\.lat_o
*1184 words\[52\]\.word_we
*1185 words\[53\]\.bits\[0\]\.lat_o
*1186 words\[53\]\.bits\[1\]\.lat_o
*1187 words\[53\]\.bits\[2\]\.lat_o
*1188 words\[53\]\.bits\[3\]\.lat_o
*1189 words\[53\]\.word_we
*1190 words\[54\]\.bits\[0\]\.lat_o
*1191 words\[54\]\.bits\[1\]\.lat_o
*1192 words\[54\]\.bits\[2\]\.lat_o
*1193 words\[54\]\.bits\[3\]\.lat_o
*1194 words\[54\]\.word_we
*1195 words\[55\]\.bits\[0\]\.lat_o
*1196 words\[55\]\.bits\[1\]\.lat_o
*1197 words\[55\]\.bits\[2\]\.lat_o
*1198 words\[55\]\.bits\[3\]\.lat_o
*1199 words\[55\]\.word_we
*1200 words\[56\]\.bits\[0\]\.lat_o
*1201 words\[56\]\.bits\[1\]\.lat_o
*1202 words\[56\]\.bits\[2\]\.lat_o
*1203 words\[56\]\.bits\[3\]\.lat_o
*1204 words\[56\]\.word_we
*1205 words\[57\]\.bits\[0\]\.lat_o
*1206 words\[57\]\.bits\[1\]\.lat_o
*1207 words\[57\]\.bits\[2\]\.lat_o
*1208 words\[57\]\.bits\[3\]\.lat_o
*1209 words\[57\]\.word_we
*1210 words\[58\]\.bits\[0\]\.lat_o
*1211 words\[58\]\.bits\[1\]\.lat_o
*1212 words\[58\]\.bits\[2\]\.lat_o
*1213 words\[58\]\.bits\[3\]\.lat_o
*1214 words\[58\]\.word_we
*1215 words\[59\]\.bits\[0\]\.lat_o
*1216 words\[59\]\.bits\[1\]\.lat_o
*1217 words\[59\]\.bits\[2\]\.lat_o
*1218 words\[59\]\.bits\[3\]\.lat_o
*1219 words\[59\]\.word_we
*1220 words\[5\]\.bits\[0\]\.lat_o
*1221 words\[5\]\.bits\[1\]\.lat_o
*1222 words\[5\]\.bits\[2\]\.lat_o
*1223 words\[5\]\.bits\[3\]\.lat_o
*1224 words\[5\]\.word_we
*1225 words\[60\]\.bits\[0\]\.lat_o
*1226 words\[60\]\.bits\[1\]\.lat_o
*1227 words\[60\]\.bits\[2\]\.lat_o
*1228 words\[60\]\.bits\[3\]\.lat_o
*1229 words\[60\]\.word_we
*1230 words\[61\]\.bits\[0\]\.lat_o
*1231 words\[61\]\.bits\[1\]\.lat_o
*1232 words\[61\]\.bits\[2\]\.lat_o
*1233 words\[61\]\.bits\[3\]\.lat_o
*1234 words\[61\]\.word_we
*1235 words\[62\]\.bits\[0\]\.lat_o
*1236 words\[62\]\.bits\[1\]\.lat_o
*1237 words\[62\]\.bits\[2\]\.lat_o
*1238 words\[62\]\.bits\[3\]\.lat_o
*1239 words\[62\]\.word_we
*1240 words\[63\]\.bits\[0\]\.lat_o
*1241 words\[63\]\.bits\[1\]\.lat_o
*1242 words\[63\]\.bits\[2\]\.lat_o
*1243 words\[63\]\.bits\[3\]\.lat_o
*1244 words\[63\]\.word_we
*1245 words\[6\]\.bits\[0\]\.lat_o
*1246 words\[6\]\.bits\[1\]\.lat_o
*1247 words\[6\]\.bits\[2\]\.lat_o
*1248 words\[6\]\.bits\[3\]\.lat_o
*1249 words\[6\]\.word_we
*1250 words\[7\]\.bits\[0\]\.lat_o
*1251 words\[7\]\.bits\[1\]\.lat_o
*1252 words\[7\]\.bits\[2\]\.lat_o
*1253 words\[7\]\.bits\[3\]\.lat_o
*1254 words\[7\]\.word_we
*1255 words\[8\]\.bits\[0\]\.lat_o
*1256 words\[8\]\.bits\[1\]\.lat_o
*1257 words\[8\]\.bits\[2\]\.lat_o
*1258 words\[8\]\.bits\[3\]\.lat_o
*1259 words\[8\]\.word_we
*1260 words\[9\]\.bits\[0\]\.lat_o
*1261 words\[9\]\.bits\[1\]\.lat_o
*1262 words\[9\]\.bits\[2\]\.lat_o
*1263 words\[9\]\.bits\[3\]\.lat_o
*1264 words\[9\]\.word_we
*1265 write_sr\[4\]
*1266 ANTENNA_0
*1267 ANTENNA_1
*1268 ANTENNA_2
*1269 ANTENNA_3
*1270 ANTENNA_4
*1271 ANTENNA_5
*1272 FILLER_0_105
*1273 FILLER_0_111
*1274 FILLER_0_113
*1275 FILLER_0_122
*1276 FILLER_0_129
*1277 FILLER_0_136
*1278 FILLER_0_150
*1279 FILLER_0_164
*1280 FILLER_0_177
*1281 FILLER_0_184
*1282 FILLER_0_192
*1283 FILLER_0_202
*1284 FILLER_0_210
*1285 FILLER_0_217
*1286 FILLER_0_223
*1287 FILLER_0_225
*1288 FILLER_0_23
*1289 FILLER_0_241
*1290 FILLER_0_248
*1291 FILLER_0_256
*1292 FILLER_0_263
*1293 FILLER_0_27
*1294 FILLER_0_270
*1295 FILLER_0_278
*1296 FILLER_0_284
*1297 FILLER_0_29
*1298 FILLER_0_296
*1299 FILLER_0_38
*1300 FILLER_0_45
*1301 FILLER_0_52
*1302 FILLER_0_57
*1303 FILLER_0_66
*1304 FILLER_0_73
*1305 FILLER_0_80
*1306 FILLER_10_10
*1307 FILLER_10_117
*1308 FILLER_10_128
*1309 FILLER_10_136
*1310 FILLER_10_141
*1311 FILLER_10_155
*1312 FILLER_10_163
*1313 FILLER_10_169
*1314 FILLER_10_17
*1315 FILLER_10_183
*1316 FILLER_10_192
*1317 FILLER_10_197
*1318 FILLER_10_208
*1319 FILLER_10_227
*1320 FILLER_10_24
*1321 FILLER_10_244
*1322 FILLER_10_258
*1323 FILLER_10_265
*1324 FILLER_10_272
*1325 FILLER_10_279
*1326 FILLER_10_290
*1327 FILLER_10_298
*1328 FILLER_10_3
*1329 FILLER_10_33
*1330 FILLER_10_37
*1331 FILLER_10_41
*1332 FILLER_10_49
*1333 FILLER_10_54
*1334 FILLER_10_60
*1335 FILLER_10_65
*1336 FILLER_10_73
*1337 FILLER_10_80
*1338 FILLER_10_90
*1339 FILLER_10_96
*1340 FILLER_11_101
*1341 FILLER_11_108
*1342 FILLER_11_113
*1343 FILLER_11_118
*1344 FILLER_11_125
*1345 FILLER_11_142
*1346 FILLER_11_150
*1347 FILLER_11_164
*1348 FILLER_11_169
*1349 FILLER_11_183
*1350 FILLER_11_194
*1351 FILLER_11_198
*1352 FILLER_11_209
*1353 FILLER_11_217
*1354 FILLER_11_223
*1355 FILLER_11_235
*1356 FILLER_11_244
*1357 FILLER_11_259
*1358 FILLER_11_276
*1359 FILLER_11_28
*1360 FILLER_11_284
*1361 FILLER_11_293
*1362 FILLER_11_3
*1363 FILLER_11_52
*1364 FILLER_11_57
*1365 FILLER_11_73
*1366 FILLER_11_8
*1367 FILLER_11_80
*1368 FILLER_11_91
*1369 FILLER_11_97
*1370 FILLER_12_105
*1371 FILLER_12_114
*1372 FILLER_12_131
*1373 FILLER_12_139
*1374 FILLER_12_145
*1375 FILLER_12_162
*1376 FILLER_12_171
*1377 FILLER_12_178
*1378 FILLER_12_187
*1379 FILLER_12_195
*1380 FILLER_12_197
*1381 FILLER_12_204
*1382 FILLER_12_221
*1383 FILLER_12_235
*1384 FILLER_12_24
*1385 FILLER_12_244
*1386 FILLER_12_266
*1387 FILLER_12_283
*1388 FILLER_12_287
*1389 FILLER_12_29
*1390 FILLER_12_291
*1391 FILLER_12_3
*1392 FILLER_12_55
*1393 FILLER_12_7
*1394 FILLER_12_79
*1395 FILLER_12_83
*1396 FILLER_12_85
*1397 FILLER_12_89
*1398 FILLER_12_98
*1399 FILLER_13_102
*1400 FILLER_13_108
*1401 FILLER_13_118
*1402 FILLER_13_135
*1403 FILLER_13_156
*1404 FILLER_13_164
*1405 FILLER_13_182
*1406 FILLER_13_19
*1407 FILLER_13_199
*1408 FILLER_13_205
*1409 FILLER_13_211
*1410 FILLER_13_220
*1411 FILLER_13_228
*1412 FILLER_13_239
*1413 FILLER_13_248
*1414 FILLER_13_25
*1415 FILLER_13_256
*1416 FILLER_13_262
*1417 FILLER_13_269
*1418 FILLER_13_276
*1419 FILLER_13_286
*1420 FILLER_13_293
*1421 FILLER_13_36
*1422 FILLER_13_44
*1423 FILLER_13_52
*1424 FILLER_13_63
*1425 FILLER_13_87
*1426 FILLER_13_98
*1427 FILLER_14_108
*1428 FILLER_14_117
*1429 FILLER_14_125
*1430 FILLER_14_13
*1431 FILLER_14_136
*1432 FILLER_14_151
*1433 FILLER_14_155
*1434 FILLER_14_161
*1435 FILLER_14_169
*1436 FILLER_14_183
*1437 FILLER_14_192
*1438 FILLER_14_197
*1439 FILLER_14_203
*1440 FILLER_14_211
*1441 FILLER_14_217
*1442 FILLER_14_234
*1443 FILLER_14_24
*1444 FILLER_14_240
*1445 FILLER_14_246
*1446 FILLER_14_258
*1447 FILLER_14_265
*1448 FILLER_14_271
*1449 FILLER_14_277
*1450 FILLER_14_284
*1451 FILLER_14_293
*1452 FILLER_14_3
*1453 FILLER_14_39
*1454 FILLER_14_50
*1455 FILLER_14_74
*1456 FILLER_14_82
*1457 FILLER_14_88
*1458 FILLER_14_92
*1459 FILLER_14_99
*1460 FILLER_15_100
*1461 FILLER_15_108
*1462 FILLER_15_113
*1463 FILLER_15_12
*1464 FILLER_15_122
*1465 FILLER_15_129
*1466 FILLER_15_137
*1467 FILLER_15_158
*1468 FILLER_15_16
*1469 FILLER_15_166
*1470 FILLER_15_172
*1471 FILLER_15_180
*1472 FILLER_15_199
*1473 FILLER_15_207
*1474 FILLER_15_214
*1475 FILLER_15_222
*1476 FILLER_15_225
*1477 FILLER_15_231
*1478 FILLER_15_240
*1479 FILLER_15_25
*1480 FILLER_15_257
*1481 FILLER_15_274
*1482 FILLER_15_294
*1483 FILLER_15_298
*1484 FILLER_15_37
*1485 FILLER_15_52
*1486 FILLER_15_64
*1487 FILLER_15_88
*1488 FILLER_15_92
*1489 FILLER_16_107
*1490 FILLER_16_115
*1491 FILLER_16_130
*1492 FILLER_16_138
*1493 FILLER_16_146
*1494 FILLER_16_153
*1495 FILLER_16_162
*1496 FILLER_16_171
*1497 FILLER_16_179
*1498 FILLER_16_185
*1499 FILLER_16_19
*1500 FILLER_16_192
*1501 FILLER_16_202
*1502 FILLER_16_219
*1503 FILLER_16_226
*1504 FILLER_16_243
*1505 FILLER_16_251
*1506 FILLER_16_253
*1507 FILLER_16_27
*1508 FILLER_16_272
*1509 FILLER_16_283
*1510 FILLER_16_292
*1511 FILLER_16_298
*1512 FILLER_16_38
*1513 FILLER_16_44
*1514 FILLER_16_65
*1515 FILLER_16_76
*1516 FILLER_16_85
*1517 FILLER_16_91
*1518 FILLER_16_98
*1519 FILLER_17_10
*1520 FILLER_17_108
*1521 FILLER_17_113
*1522 FILLER_17_132
*1523 FILLER_17_139
*1524 FILLER_17_143
*1525 FILLER_17_157
*1526 FILLER_17_164
*1527 FILLER_17_176
*1528 FILLER_17_180
*1529 FILLER_17_191
*1530 FILLER_17_201
*1531 FILLER_17_208
*1532 FILLER_17_220
*1533 FILLER_17_238
*1534 FILLER_17_251
*1535 FILLER_17_259
*1536 FILLER_17_266
*1537 FILLER_17_273
*1538 FILLER_17_279
*1539 FILLER_17_286
*1540 FILLER_17_293
*1541 FILLER_17_3
*1542 FILLER_17_36
*1543 FILLER_17_49
*1544 FILLER_17_55
*1545 FILLER_17_64
*1546 FILLER_17_73
*1547 FILLER_17_80
*1548 FILLER_17_87
*1549 FILLER_17_94
*1550 FILLER_18_101
*1551 FILLER_18_111
*1552 FILLER_18_120
*1553 FILLER_18_127
*1554 FILLER_18_136
*1555 FILLER_18_15
*1556 FILLER_18_150
*1557 FILLER_18_159
*1558 FILLER_18_165
*1559 FILLER_18_172
*1560 FILLER_18_181
*1561 FILLER_18_190
*1562 FILLER_18_200
*1563 FILLER_18_207
*1564 FILLER_18_218
*1565 FILLER_18_226
*1566 FILLER_18_235
*1567 FILLER_18_24
*1568 FILLER_18_246
*1569 FILLER_18_258
*1570 FILLER_18_267
*1571 FILLER_18_276
*1572 FILLER_18_29
*1573 FILLER_18_295
*1574 FILLER_18_3
*1575 FILLER_18_42
*1576 FILLER_18_50
*1577 FILLER_18_60
*1578 FILLER_18_7
*1579 FILLER_18_71
*1580 FILLER_18_80
*1581 FILLER_19_10
*1582 FILLER_19_104
*1583 FILLER_19_118
*1584 FILLER_19_126
*1585 FILLER_19_140
*1586 FILLER_19_148
*1587 FILLER_19_163
*1588 FILLER_19_167
*1589 FILLER_19_174
*1590 FILLER_19_188
*1591 FILLER_19_195
*1592 FILLER_19_203
*1593 FILLER_19_207
*1594 FILLER_19_211
*1595 FILLER_19_22
*1596 FILLER_19_220
*1597 FILLER_19_238
*1598 FILLER_19_255
*1599 FILLER_19_272
*1600 FILLER_19_286
*1601 FILLER_19_295
*1602 FILLER_19_3
*1603 FILLER_19_34
*1604 FILLER_19_47
*1605 FILLER_19_55
*1606 FILLER_19_57
*1607 FILLER_19_61
*1608 FILLER_19_65
*1609 FILLER_19_85
*1610 FILLER_19_89
*1611 FILLER_19_95
*1612 FILLER_1_108
*1613 FILLER_1_113
*1614 FILLER_1_117
*1615 FILLER_1_121
*1616 FILLER_1_133
*1617 FILLER_1_147
*1618 FILLER_1_153
*1619 FILLER_1_164
*1620 FILLER_1_173
*1621 FILLER_1_177
*1622 FILLER_1_18
*1623 FILLER_1_191
*1624 FILLER_1_208
*1625 FILLER_1_220
*1626 FILLER_1_238
*1627 FILLER_1_246
*1628 FILLER_1_253
*1629 FILLER_1_260
*1630 FILLER_1_267
*1631 FILLER_1_274
*1632 FILLER_1_284
*1633 FILLER_1_296
*1634 FILLER_1_3
*1635 FILLER_1_42
*1636 FILLER_1_51
*1637 FILLER_1_55
*1638 FILLER_1_57
*1639 FILLER_1_66
*1640 FILLER_1_75
*1641 FILLER_1_79
*1642 FILLER_1_84
*1643 FILLER_1_9