*SPEF "ieee 1481-1999"
*DESIGN "pwm_gen"
*DATE "11:11:11 Fri 11 11, 1111"
*VENDOR "OpenRCX"
*PROGRAM "Parallel Extraction"
*VERSION "1.0"
*DESIGN_FLOW "NAME_SCOPE LOCAL" "PIN_CAP NONE"
*DIVIDER /
*DELIMITER :
*BUS_DELIMITER []
*T_UNIT 1 NS
*C_UNIT 1 PF
*R_UNIT 1 OHM
*L_UNIT 1 HENRY

*NAME_MAP
*1 io_in[0]
*2 io_in[1]
*3 io_in[2]
*4 io_in[3]
*5 io_in[4]
*6 io_in[5]
*7 io_in[6]
*8 io_in[7]
*9 io_out[0]
*10 io_out[1]
*11 io_out[2]
*12 io_out[3]
*13 io_out[4]
*14 io_out[5]
*15 io_out[6]
*16 io_out[7]
*19 _000_
*20 _001_
*21 _002_
*22 _003_
*23 _004_
*24 _005_
*25 _006_
*26 _007_
*27 _008_
*28 _009_
*29 _010_
*30 _011_
*31 _012_
*32 _013_
*33 _014_
*34 _015_
*35 _016_
*36 _017_
*37 _018_
*38 _019_
*39 _020_
*40 _021_
*41 _022_
*42 _023_
*43 _024_
*44 _025_
*45 _026_
*46 _027_
*47 _028_
*48 _029_
*49 _030_
*50 _031_
*51 _032_
*52 _033_
*53 _034_
*54 _035_
*55 _036_
*56 _037_
*57 _038_
*58 _039_
*59 _040_
*60 _041_
*61 _042_
*62 _043_
*63 _044_
*64 _045_
*65 _046_
*66 _047_
*67 _048_
*68 _049_
*69 _050_
*70 _051_
*71 _052_
*72 _053_
*73 _054_
*74 _055_
*75 _056_
*76 _057_
*77 _058_
*78 _059_
*79 _060_
*80 _061_
*81 _062_
*82 _063_
*83 _064_
*84 _065_
*85 _066_
*86 _067_
*87 _068_
*88 _069_
*89 _070_
*90 _071_
*91 _072_
*92 _073_
*93 _074_
*94 _075_
*95 _076_
*96 _077_
*97 _078_
*98 _079_
*99 _080_
*100 _081_
*101 _082_
*102 _083_
*103 _084_
*104 _085_
*105 _086_
*106 _087_
*107 _088_
*108 _089_
*109 _090_
*110 _091_
*111 _092_
*112 clknet_0_io_in[0]
*113 clknet_1_0__leaf_io_in[0]
*114 clknet_1_1__leaf_io_in[0]
*115 counter_state
*116 net1
*117 pwm
*118 pwm_counter\[0\]
*119 pwm_counter\[1\]
*120 pwm_counter\[2\]
*121 pwm_counter\[3\]
*122 pwm_counter\[4\]
*123 pwm_counter\[5\]
*124 ANTENNA_0
*125 ANTENNA_1
*126 ANTENNA_2
*127 FILLER_0_109
*128 FILLER_0_113
*129 FILLER_0_125
*130 FILLER_0_137
*131 FILLER_0_141
*132 FILLER_0_153
*133 FILLER_0_165
*134 FILLER_0_169
*135 FILLER_0_181
*136 FILLER_0_193
*137 FILLER_0_197
*138 FILLER_0_209
*139 FILLER_0_22
*140 FILLER_0_221
*141 FILLER_0_225
*142 FILLER_0_237
*143 FILLER_0_249
*144 FILLER_0_253
*145 FILLER_0_265
*146 FILLER_0_277
*147 FILLER_0_281
*148 FILLER_0_293
*149 FILLER_0_48
*150 FILLER_0_57
*151 FILLER_0_69
*152 FILLER_0_81
*153 FILLER_0_85
*154 FILLER_0_97
*155 FILLER_10_109
*156 FILLER_10_121
*157 FILLER_10_133
*158 FILLER_10_139
*159 FILLER_10_141
*160 FILLER_10_15
*161 FILLER_10_153
*162 FILLER_10_165
*163 FILLER_10_177
*164 FILLER_10_189
*165 FILLER_10_195
*166 FILLER_10_197
*167 FILLER_10_209
*168 FILLER_10_221
*169 FILLER_10_233
*170 FILLER_10_245
*171 FILLER_10_251
*172 FILLER_10_253
*173 FILLER_10_265
*174 FILLER_10_27
*175 FILLER_10_277
*176 FILLER_10_289
*177 FILLER_10_29
*178 FILLER_10_297
*179 FILLER_10_3
*180 FILLER_10_41
*181 FILLER_10_49
*182 FILLER_10_56
*183 FILLER_10_68
*184 FILLER_10_80
*185 FILLER_10_85
*186 FILLER_10_97
*187 FILLER_11_108
*188 FILLER_11_113
*189 FILLER_11_125
*190 FILLER_11_137
*191 FILLER_11_149
*192 FILLER_11_161
*193 FILLER_11_167
*194 FILLER_11_169
*195 FILLER_11_181
*196 FILLER_11_193
*197 FILLER_11_205
*198 FILLER_11_217
*199 FILLER_11_223
*200 FILLER_11_225
*201 FILLER_11_237
*202 FILLER_11_249
*203 FILLER_11_261
*204 FILLER_11_27
*205 FILLER_11_273
*206 FILLER_11_279
*207 FILLER_11_281
*208 FILLER_11_293
*209 FILLER_11_3
*210 FILLER_11_39
*211 FILLER_11_46
*212 FILLER_11_54
*213 FILLER_11_57
*214 FILLER_11_63
*215 FILLER_11_67
*216 FILLER_11_75
*217 FILLER_11_80
*218 FILLER_11_88
*219 FILLER_11_96
*220 FILLER_12_109
*221 FILLER_12_121
*222 FILLER_12_13
*223 FILLER_12_133
*224 FILLER_12_139
*225 FILLER_12_141
*226 FILLER_12_153
*227 FILLER_12_165
*228 FILLER_12_177
*229 FILLER_12_189
*230 FILLER_12_195
*231 FILLER_12_197
*232 FILLER_12_209
*233 FILLER_12_221
*234 FILLER_12_233
*235 FILLER_12_245
*236 FILLER_12_25
*237 FILLER_12_251
*238 FILLER_12_253
*239 FILLER_12_265
*240 FILLER_12_277
*241 FILLER_12_289
*242 FILLER_12_297
*243 FILLER_12_3
*244 FILLER_12_35
*245 FILLER_12_47
*246 FILLER_12_55
*247 FILLER_12_63
*248 FILLER_12_67
*249 FILLER_12_71
*250 FILLER_12_83
*251 FILLER_12_85
*252 FILLER_12_97
*253 FILLER_13_100
*254 FILLER_13_113
*255 FILLER_13_125
*256 FILLER_13_137
*257 FILLER_13_152
*258 FILLER_13_164
*259 FILLER_13_169
*260 FILLER_13_181
*261 FILLER_13_193
*262 FILLER_13_205
*263 FILLER_13_217
*264 FILLER_13_223
*265 FILLER_13_225
*266 FILLER_13_237
*267 FILLER_13_249
*268 FILLER_13_261
*269 FILLER_13_273
*270 FILLER_13_279
*271 FILLER_13_28
*272 FILLER_13_281
*273 FILLER_13_293
*274 FILLER_13_3
*275 FILLER_13_38
*276 FILLER_13_50
*277 FILLER_13_64
*278 FILLER_13_76
*279 FILLER_13_88
*280 FILLER_14_109
*281 FILLER_14_11
*282 FILLER_14_121
*283 FILLER_14_133
*284 FILLER_14_139
*285 FILLER_14_141
*286 FILLER_14_153
*287 FILLER_14_165
*288 FILLER_14_177
*289 FILLER_14_189
*290 FILLER_14_195
*291 FILLER_14_197
*292 FILLER_14_209
*293 FILLER_14_221
*294 FILLER_14_23
*295 FILLER_14_233
*296 FILLER_14_245
*297 FILLER_14_251
*298 FILLER_14_253
*299 FILLER_14_265
*300 FILLER_14_27
*301 FILLER_14_277
*302 FILLER_14_289
*303 FILLER_14_29
*304 FILLER_14_297
*305 FILLER_14_3
*306 FILLER_14_39
*307 FILLER_14_51
*308 FILLER_14_63
*309 FILLER_14_75
*310 FILLER_14_83
*311 FILLER_14_85
*312 FILLER_14_97
*313 FILLER_15_103
*314 FILLER_15_111
*315 FILLER_15_113
*316 FILLER_15_125
*317 FILLER_15_13
*318 FILLER_15_137
*319 FILLER_15_149
*320 FILLER_15_161
*321 FILLER_15_167
*322 FILLER_15_169
*323 FILLER_15_175
*324 FILLER_15_187
*325 FILLER_15_199
*326 FILLER_15_21
*327 FILLER_15_211
*328 FILLER_15_223
*329 FILLER_15_225
*330 FILLER_15_237
*331 FILLER_15_249
*332 FILLER_15_261
*333 FILLER_15_273
*334 FILLER_15_279
*335 FILLER_15_281
*336 FILLER_15_29
*337 FILLER_15_293
*338 FILLER_15_3
*339 FILLER_15_41
*340 FILLER_15_53
*341 FILLER_15_57
*342 FILLER_15_67
*343 FILLER_15_79
*344 FILLER_15_91
*345 FILLER_16_109
*346 FILLER_16_121
*347 FILLER_16_133
*348 FILLER_16_139
*349 FILLER_16_141
*350 FILLER_16_15
*351 FILLER_16_153
*352 FILLER_16_165
*353 FILLER_16_177
*354 FILLER_16_189
*355 FILLER_16_195
*356 FILLER_16_197
*357 FILLER_16_209
*358 FILLER_16_221
*359 FILLER_16_233
*360 FILLER_16_245
*361 FILLER_16_251
*362 FILLER_16_253
*363 FILLER_16_265
*364 FILLER_16_27
*365 FILLER_16_277
*366 FILLER_16_289
*367 FILLER_16_297
*368 FILLER_16_3
*369 FILLER_16_33
*370 FILLER_16_44
*371 FILLER_16_55
*372 FILLER_16_66
*373 FILLER_16_78
*374 FILLER_16_85
*375 FILLER_16_97
*376 FILLER_17_108
*377 FILLER_17_11
*378 FILLER_17_113
*379 FILLER_17_121
*380 FILLER_17_133
*381 FILLER_17_145
*382 FILLER_17_157
*383 FILLER_17_165
*384 FILLER_17_169
*385 FILLER_17_181
*386 FILLER_17_193
*387 FILLER_17_205
*388 FILLER_17_217
*389 FILLER_17_22
*390 FILLER_17_223
*391 FILLER_17_225
*392 FILLER_17_237
*393 FILLER_17_249
*394 FILLER_17_261
*395 FILLER_17_273
*396 FILLER_17_279
*397 FILLER_17_281
*398 FILLER_17_293
*399 FILLER_17_3
*400 FILLER_17_34
*401 FILLER_17_46
*402 FILLER_17_54
*403 FILLER_17_57
*404 FILLER_17_69
*405 FILLER_17_77
*406 FILLER_17_85
*407 FILLER_17_91
*408 FILLER_17_96
*409 FILLER_18_109
*410 FILLER_18_121
*411 FILLER_18_133
*412 FILLER_18_139
*413 FILLER_18_141
*414 FILLER_18_15
*415 FILLER_18_153
*416 FILLER_18_165
*417 FILLER_18_177
*418 FILLER_18_189
*419 FILLER_18_195
*420 FILLER_18_197
*421 FILLER_18_209
*422 FILLER_18_221
*423 FILLER_18_233
*424 FILLER_18_245
*425 FILLER_18_251
*426 FILLER_18_253
*427 FILLER_18_265
*428 FILLER_18_27
*429 FILLER_18_277
*430 FILLER_18_289
*431 FILLER_18_29
*432 FILLER_18_297
*433 FILLER_18_3
*434 FILLER_18_41
*435 FILLER_18_53
*436 FILLER_18_59
*437 FILLER_18_64
*438 FILLER_18_70
*439 FILLER_18_76
*440 FILLER_18_85
*441 FILLER_18_97
*442 FILLER_19_107
*443 FILLER_19_111
*444 FILLER_19_113
*445 FILLER_19_125
*446 FILLER_19_137
*447 FILLER_19_149
*448 FILLER_19_15
*449 FILLER_19_161
*450 FILLER_19_167
*451 FILLER_19_169
*452 FILLER_19_181
*453 FILLER_19_193
*454 FILLER_19_20
*455 FILLER_19_205
*456 FILLER_19_217
*457 FILLER_19_223
*458 FILLER_19_225
*459 FILLER_19_237
*460 FILLER_19_249
*461 FILLER_19_261
*462 FILLER_19_273
*463 FILLER_19_279
*464 FILLER_19_281
*465 FILLER_19_293
*466 FILLER_19_3
*467 FILLER_19_32
*468 FILLER_19_44
*469 FILLER_19_57
*470 FILLER_19_65
*471 FILLER_19_71
*472 FILLER_19_83
*473 FILLER_19_95
*474 FILLER_1_106
*475 FILLER_1_118
*476 FILLER_1_125
*477 FILLER_1_137
*478 FILLER_1_149
*479 FILLER_1_15
*480 FILLER_1_161
*481 FILLER_1_167
*482 FILLER_1_169
*483 FILLER_1_181
*484 FILLER_1_191
*485 FILLER_1_203
*486 FILLER_1_215
*487 FILLER_1_223
*488 FILLER_1_225
*489 FILLER_1_237
*490 FILLER_1_249
*491 FILLER_1_261
*492 FILLER_1_273
*493 FILLER_1_279
*494 FILLER_1_281
*495 FILLER_1_293
*496 FILLER_1_3
*497 FILLER_1_36
*498 FILLER_1_48
*499 FILLER_1_65
*500 FILLER_1_69
*501 FILLER_1_75
*502 FILLER_1_82
*503 FILLER_1_94
*504 FILLER_20_109
*505 FILLER_20_121
*506 FILLER_20_133
*507 FILLER_20_139
*508 FILLER_20_141
*509 FILLER_20_15
*510 FILLER_20_153
*511 FILLER_20_165
*512 FILLER_20_177
*513 FILLER_20_189
*514 FILLER_20_195
*515 FILLER_20_197
*516 FILLER_20_209
*517 FILLER_20_221
*518 FILLER_20_233
*519 FILLER_20_245
*520 FILLER_20_251
*521 FILLER_20_253
*522 FILLER_20_265
*523 FILLER_20_27
*524 FILLER_20_277
*525 FILLER_20_289
*526 FILLER_20_297
*527 FILLER_20_3
*528 FILLER_20_33
*529 FILLER_20_45
*530 FILLER_20_57
*531 FILLER_20_69
*532 FILLER_20_81
*533 FILLER_20_85
*534 FILLER_20_97
*535 FILLER_21_105
*536 FILLER_21_111
*537 FILLER_21_113
*538 FILLER_21_125
*539 FILLER_21_137
*540 FILLER_21_149
*541 FILLER_21_15
*542 FILLER_21_161
*543 FILLER_21_167
*544 FILLER_21_169
*545 FILLER_21_181
*546 FILLER_21_193
*547 FILLER_21_205
*548 FILLER_21_217
*549 FILLER_21_223
*550 FILLER_21_225
*551 FILLER_21_237
*552 FILLER_21_249
*553 FILLER_21_261
*554 FILLER_21_27
*555 FILLER_21_273
*556 FILLER_21_279
*557 FILLER_21_281
*558 FILLER_21_293
*559 FILLER_21_3
*560 FILLER_21_39
*561 FILLER_21_51
*562 FILLER_21_55
*563 FILLER_21_57
*564 FILLER_21_69
*565 FILLER_21_81
*566 FILLER_21_93
*567 FILLER_22_104
*568 FILLER_22_116
*569 FILLER_22_128
*570 FILLER_22_141
*571 FILLER_22_153
*572 FILLER_22_165
*573 FILLER_22_177
*574 FILLER_22_189
*575 FILLER_22_195
*576 FILLER_22_197
*577 FILLER_22_209
*578 FILLER_22_221
*579 FILLER_22_233
*580 FILLER_22_24
*581 FILLER_22_245
*582 FILLER_22_251
*583 FILLER_22_253
*584 FILLER_22_265
*585 FILLER_22_277
*586 FILLER_22_289
*587 FILLER_22_297
*588 FILLER_22_3
*589 FILLER_22_35
*590 FILLER_22_47
*591 FILLER_22_59
*592 FILLER_22_71
*593 FILLER_22_83
*594 FILLER_22_85
*595 FILLER_22_97
*596 FILLER_23_105
*597 FILLER_23_11
*598 FILLER_23_111
*599 FILLER_23_113
*600 FILLER_23_125
*601 FILLER_23_137
*602 FILLER_23_149
*603 FILLER_23_15
*604 FILLER_23_161
*605 FILLER_23_167
*606 FILLER_23_169
*607 FILLER_23_181
*608 FILLER_23_193
*609 FILLER_23_205
*610 FILLER_23_21
*611 FILLER_23_217
*612 FILLER_23_223
*613 FILLER_23_225
*614 FILLER_23_237
*615 FILLER_23_249
*616 FILLER_23_261
*617 FILLER_23_273
*618 FILLER_23_279
*619 FILLER_23_281
*620 FILLER_23_29
*621 FILLER_23_293
*622 FILLER_23_39
*623 FILLER_23_51
*624 FILLER_23_55
*625 FILLER_23_57
*626 FILLER_23_69
*627 FILLER_23_81
*628 FILLER_23_93
*629 FILLER_24_109
*630 FILLER_24_121
*631 FILLER_24_133
*632 FILLER_24_139
*633 FILLER_24_14
*634 FILLER_24_141
*635 FILLER_24_153
*636 FILLER_24_165
*637 FILLER_24_177
*638 FILLER_24_189
*639 FILLER_24_195
*640 FILLER_24_197
*641 FILLER_24_209
*642 FILLER_24_221
*643 FILLER_24_233
*644 FILLER_24_245
*645 FILLER_24_251
*646 FILLER_24_253
*647 FILLER_24_26
*648 FILLER_24_265
*649 FILLER_24_277
*650 FILLER_24_289
*651 FILLER_24_29
*652 FILLER_24_297
*653 FILLER_24_3
*654 FILLER_24_41
*655 FILLER_24_53
*656 FILLER_24_65
*657 FILLER_24_7
*658 FILLER_24_71
*659 FILLER_24_83
*660 FILLER_24_85
*661 FILLER_24_97
*662 FILLER_25_105
*663 FILLER_25_11
*664 FILLER_25_111
*665 FILLER_25_113
*666 FILLER_25_125
*667 FILLER_25_137
*668 FILLER_25_149
*669 FILLER_25_161
*670 FILLER_25_167
*671 FILLER_25_169
*672 FILLER_25_181
*673 FILLER_25_193
*674 FILLER_25_205
*675 FILLER_25_217
*676 FILLER_25_223
*677 FILLER_25_225
*678 FILLER_25_23
*679 FILLER_25_237
*680 FILLER_25_249
*681 FILLER_25_261
*682 FILLER_25_273
*683 FILLER_25_279
*684 FILLER_25_281
*685 FILLER_25_293
*686 FILLER_25_3
*687 FILLER_25_35
*688 FILLER_25_43
*689 FILLER_25_50
*690 FILLER_25_57
*691 FILLER_25_69
*692 FILLER_25_7
*693 FILLER_25_81
*694 FILLER_25_93
*695 FILLER_26_108
*696 FILLER_26_120
*697 FILLER_26_132
*698 FILLER_26_141
*699 FILLER_26_15
*700 FILLER_26_153
*701 FILLER_26_159
*702 FILLER_26_171
*703 FILLER_26_183
*704 FILLER_26_195
*705 FILLER_26_197
*706 FILLER_26_209
*707 FILLER_26_221
*708 FILLER_26_233
*709 FILLER_26_245
*710 FILLER_26_251
*711 FILLER_26_253
*712 FILLER_26_265
*713 FILLER_26_27
*714 FILLER_26_277
*715 FILLER_26_289
*716 FILLER_26_29
*717 FILLER_26_297
*718 FILLER_26_3
*719 FILLER_26_41
*720 FILLER_26_53
*721 FILLER_26_65
*722 FILLER_26_77
*723 FILLER_26_83
*724 FILLER_26_85
*725 FILLER_26_96
*726 FILLER_27_105
*727 FILLER_27_111
*728 FILLER_27_113
*729 FILLER_27_125
*730 FILLER_27_137
*731 FILLER_27_149
*732 FILLER_27_15
*733 FILLER_27_161
*734 FILLER_27_167
*735 FILLER_27_169
*736 FILLER_27_181
*737 FILLER_27_193
*738 FILLER_27_205
*739 FILLER_27_217
*740 FILLER_27_223
*741 FILLER_27_225
*742 FILLER_27_237
*743 FILLER_27_249
*744 FILLER_27_261
*745 FILLER_27_273
*746 FILLER_27_279
*747 FILLER_27_28
*748 FILLER_27_281
*749 FILLER_27_293
*750 FILLER_27_3
*751 FILLER_27_40
*752 FILLER_27_50
*753 FILLER_27_57
*754 FILLER_27_69
*755 FILLER_27_81
*756 FILLER_27_93
*757 FILLER_28_109
*758 FILLER_28_121
*759 FILLER_28_133
*760 FILLER_28_139
*761 FILLER_28_141
*762 FILLER_28_15
*763 FILLER_28_153
*764 FILLER_28_165
*765 FILLER_28_177
*766 FILLER_28_189
*767 FILLER_28_195
*768 FILLER_28_197
*769 FILLER_28_209
*770 FILLER_28_221
*771 FILLER_28_233
*772 FILLER_28_245
*773 FILLER_28_251
*774 FILLER_28_253
*775 FILLER_28_265
*776 FILLER_28_27
*777 FILLER_28_277
*778 FILLER_28_289
*779 FILLER_28_29
*780 FILLER_28_297
*781 FILLER_28_3
*782 FILLER_28_41
*783 FILLER_28_53
*784 FILLER_28_65
*785 FILLER_28_77
*786 FILLER_28_83
*787 FILLER_28_85
*788 FILLER_28_97
*789 FILLER_29_105
*790 FILLER_29_111
*791 FILLER_29_113
*792 FILLER_29_125
*793 FILLER_29_137
*794 FILLER_29_149
*795 FILLER_29_15
*796 FILLER_29_161
*797 FILLER_29_167
*798 FILLER_29_169
*799 FILLER_29_181
*800 FILLER_29_193
*801 FILLER_29_205
*802 FILLER_29_217
*803 FILLER_29_223
*804 FILLER_29_225
*805 FILLER_29_237
*806 FILLER_29_249
*807 FILLER_29_261
*808 FILLER_29_273
*809 FILLER_29_279
*810 FILLER_29_281
*811 FILLER_29_29
*812 FILLER_29_293
*813 FILLER_29_3
*814 FILLER_29_39
*815 FILLER_29_51
*816 FILLER_29_55
*817 FILLER_29_57
*818 FILLER_29_69
*819 FILLER_29_81
*820 FILLER_29_93
*821 FILLER_2_109
*822 FILLER_2_121
*823 FILLER_2_127
*824 FILLER_2_136
*825 FILLER_2_141
*826 FILLER_2_153
*827 FILLER_2_165
*828 FILLER_2_177
*829 FILLER_2_189
*830 FILLER_2_195
*831 FILLER_2_197
*832 FILLER_2_20
*833 FILLER_2_209
*834 FILLER_2_221
*835 FILLER_2_233
*836 FILLER_2_245
*837 FILLER_2_251
*838 FILLER_2_253
*839 FILLER_2_265
*840 FILLER_2_277
*841 FILLER_2_289
*842 FILLER_2_29
*843 FILLER_2_297
*844 FILLER_2_35
*845 FILLER_2_53
*846 FILLER_2_65
*847 FILLER_2_77
*848 FILLER_2_83
*849 FILLER_2_85
*850 FILLER_2_97
*851 FILLER_30_109
*852 FILLER_30_121
*853 FILLER_30_133
*854 FILLER_30_139
*855 FILLER_30_141
*856 FILLER_30_15
*857 FILLER_30_153
*858 FILLER_30_165
*859 FILLER_30_177
*860 FILLER_30_189
*861 FILLER_30_195
*862 FILLER_30_197
*863 FILLER_30_209
*864 FILLER_30_221
*865 FILLER_30_233
*866 FILLER_30_245
*867 FILLER_30_251
*868 FILLER_30_253
*869 FILLER_30_265
*870 FILLER_30_27
*871 FILLER_30_277
*872 FILLER_30_289
*873 FILLER_30_29
*874 FILLER_30_297
*875 FILLER_30_3
*876 FILLER_30_41
*877 FILLER_30_53
*878 FILLER_30_65
*879 FILLER_30_77
*880 FILLER_30_83
*881 FILLER_30_85
*882 FILLER_30_97
*883 FILLER_31_105
*884 FILLER_31_111
*885 FILLER_31_116
*886 FILLER_31_128
*887 FILLER_31_140
*888 FILLER_31_15
*889 FILLER_31_152
*890 FILLER_31_164
*891 FILLER_31_169
*892 FILLER_31_181
*893 FILLER_31_193
*894 FILLER_31_205
*895 FILLER_31_217
*896 FILLER_31_223
*897 FILLER_31_225
*898 FILLER_31_237
*899 FILLER_31_249
*900 FILLER_31_261
*901 FILLER_31_27
*902 FILLER_31_273
*903 FILLER_31_279
*904 FILLER_31_281
*905 FILLER_31_293
*906 FILLER_31_3
*907 FILLER_31_39
*908 FILLER_31_51
*909 FILLER_31_55
*910 FILLER_31_57
*911 FILLER_31_69
*912 FILLER_31_81
*913 FILLER_31_93
*914 FILLER_32_109
*915 FILLER_32_121
*916 FILLER_32_133
*917 FILLER_32_139
*918 FILLER_32_145
*919 FILLER_32_15
*920 FILLER_32_157
*921 FILLER_32_169
*922 FILLER_32_181
*923 FILLER_32_193
*924 FILLER_32_197
*925 FILLER_32_209
*926 FILLER_32_221
*927 FILLER_32_233
*928 FILLER_32_245
*929 FILLER_32_251
*930 FILLER_32_253
*931 FILLER_32_265
*932 FILLER_32_27
*933 FILLER_32_277
*934 FILLER_32_289
*935 FILLER_32_29
*936 FILLER_32_297
*937 FILLER_32_3
*938 FILLER_32_41
*939 FILLER_32_45
*940 FILLER_32_53
*941 FILLER_32_65
*942 FILLER_32_77
*943 FILLER_32_83
*944 FILLER_32_85
*945 FILLER_32_97
*946 FILLER_33_105
*947 FILLER_33_111
*948 FILLER_33_113
*949 FILLER_33_125
*950 FILLER_33_137
*951 FILLER_33_149
*952 FILLER_33_15
*953 FILLER_33_161
*954 FILLER_33_167
*955 FILLER_33_169
*956 FILLER_33_181
*957 FILLER_33_193
*958 FILLER_33_205
*959 FILLER_33_217
*960 FILLER_33_223
*961 FILLER_33_225
*962 FILLER_33_237
*963 FILLER_33_249
*964 FILLER_33_261
*965 FILLER_33_27
*966 FILLER_33_273
*967 FILLER_33_279
*968 FILLER_33_281
*969 FILLER_33_293
*970 FILLER_33_3
*971 FILLER_33_39
*972 FILLER_33_51
*973 FILLER_33_55
*974 FILLER_33_57
*975 FILLER_33_69
*976 FILLER_33_81
*977 FILLER_33_93
*978 FILLER_34_109
*979 FILLER_34_121
*980 FILLER_34_133
*981 FILLER_34_139
*982 FILLER_34_141
*983 FILLER_34_15
*984 FILLER_34_153
*985 FILLER_34_165
*986 FILLER_34_177
*987 FILLER_34_189
*988 FILLER_34_195
*989 FILLER_34_197
*990 FILLER_34_209
*991 FILLER_34_221
*992 FILLER_34_233
*993 FILLER_34_245
*994 FILLER_34_251
*995 FILLER_34_253
*996 FILLER_34_265
*997 FILLER_34_27
*998 FILLER_34_277
*999 FILLER_34_289
*1000 FILLER_34_29
*1001 FILLER_34_297
*1002 FILLER_34_3
*1003 FILLER_34_41
*1004 FILLER_34_53
*1005 FILLER_34_65
*1006 FILLER_34_77
*1007 FILLER_34_83
*1008 FILLER_34_85
*1009 FILLER_34_97
*1010 FILLER_35_105
*1011 FILLER_35_111
*1012 FILLER_35_113
*1013 FILLER_35_125
*1014 FILLER_35_137
*1015 FILLER_35_149
*1016 FILLER_35_15
*1017 FILLER_35_161
*1018 FILLER_35_167
*1019 FILLER_35_169
*1020 FILLER_35_181
*1021 FILLER_35_193
*1022 FILLER_35_205
*1023 FILLER_35_217
*1024 FILLER_35_223
*1025 FILLER_35_225
*1026 FILLER_35_237
*1027 FILLER_35_249
*1028 FILLER_35_261
*1029 FILLER_35_27
*1030 FILLER_35_273
*1031 FILLER_35_279
*1032 FILLER_35_281
*1033 FILLER_35_293
*1034 FILLER_35_3
*1035 FILLER_35_39
*1036 FILLER_35_51
*1037 FILLER_35_55
*1038 FILLER_35_57
*1039 FILLER_35_69
*1040 FILLER_35_81
*1041 FILLER_35_93
*1042 FILLER_36_109
*1043 FILLER_36_121
*1044 FILLER_36_133
*1045 FILLER_36_139
*1046 FILLER_36_141
*1047 FILLER_36_15
*1048 FILLER_36_153
*1049 FILLER_36_165
*1050 FILLER_36_177
*1051 FILLER_36_189
*1052 FILLER_36_195
*1053 FILLER_36_197
*1054 FILLER_36_209
*1055 FILLER_36_221
*1056 FILLER_36_233
*1057 FILLER_36_24
*1058 FILLER_36_245
*1059 FILLER_36_251
*1060 FILLER_36_253
*1061 FILLER_36_265
*1062 FILLER_36_277
*1063 FILLER_36_289
*1064 FILLER_36_29
*1065 FILLER_36_297
*1066 FILLER_36_3
*1067 FILLER_36_41
*1068 FILLER_36_53
*1069 FILLER_36_65
*1070 FILLER_36_77
*1071 FILLER_36_83
*1072 FILLER_36_85
*1073 FILLER_36_97
*1074 FILLER_37_105
*1075 FILLER_37_111
*1076 FILLER_37_113
*1077 FILLER_37_125
*1078 FILLER_37_137
*1079 FILLER_37_149
*1080 FILLER_37_15
*1081 FILLER_37_161
*1082 FILLER_37_167
*1083 FILLER_37_169
*1084 FILLER_37_181
*1085 FILLER_37_193
*1086 FILLER_37_205
*1087 FILLER_37_217
*1088 FILLER_37_223
*1089 FILLER_37_225
*1090 FILLER_37_237
*1091 FILLER_37_249
*1092 FILLER_37_261
*1093 FILLER_37_27
*1094 FILLER_37_273
*1095 FILLER_37_279
*1096 FILLER_37_281
*1097 FILLER_37_293
*1098 FILLER_37_3
*1099 FILLER_37_39
*1100 FILLER_37_51
*1101 FILLER_37_55
*1102 FILLER_37_57
*1103 FILLER_37_69
*1104 FILLER_37_81
*1105 FILLER_37_93
*1106 FILLER_38_109
*1107 FILLER_38_121
*1108 FILLER_38_133
*1109 FILLER_38_139
*1110 FILLER_38_141
*1111 FILLER_38_15
*1112 FILLER_38_153
*1113 FILLER_38_165
*1114 FILLER_38_177
*1115 FILLER_38_189
*1116 FILLER_38_195
*1117 FILLER_38_197
*1118 FILLER_38_209
*1119 FILLER_38_221
*1120 FILLER_38_233
*1121 FILLER_38_245
*1122 FILLER_38_251
*1123 FILLER_38_253
*1124 FILLER_38_265
*1125 FILLER_38_27
*1126 FILLER_38_277
*1127 FILLER_38_289
*1128 FILLER_38_29
*1129 FILLER_38_297
*1130 FILLER_38_3
*1131 FILLER_38_37
*1132 FILLER_38_44
*1133 FILLER_38_56
*1134 FILLER_38_68
*1135 FILLER_38_80
*1136 FILLER_38_85
*1137 FILLER_38_97
*1138 FILLER_39_105
*1139 FILLER_39_111
*1140 FILLER_39_113
*1141 FILLER_39_125
*1142 FILLER_39_137
*1143 FILLER_39_149
*1144 FILLER_39_15
*1145 FILLER_39_161
*1146 FILLER_39_167
*1147 FILLER_39_169
*1148 FILLER_39_181
*1149 FILLER_39_193
*1150 FILLER_39_205
*1151 FILLER_39_217
*1152 FILLER_39_223
*1153 FILLER_39_225
*1154 FILLER_39_237
*1155 FILLER_39_249
*1156 FILLER_39_261
*1157 FILLER_39_273
*1158 FILLER_39_279
*1159 FILLER_39_281
*1160 FILLER_39_293
*1161 FILLER_39_3
*1162 FILLER_39_30
*1163 FILLER_39_42
*1164 FILLER_39_54
*1165 FILLER_39_57
*1166 FILLER_39_69
*1167 FILLER_39_81
*1168 FILLER_39_93
*1169 FILLER_3_111
*1170 FILLER_3_117
*1171 FILLER_3_129
*1172 FILLER_3_141
*1173 FILLER_3_153
*1174 FILLER_3_165
*1175 FILLER_3_169
*1176 FILLER_3_181
*1177 FILLER_3_193
*1178 FILLER_3_205
*1179 FILLER_3_217
*1180 FILLER_3_22
*1181 FILLER_3_223
*1182 FILLER_3_225
*1183 FILLER_3_237
*1184 FILLER_3_249
*1185 FILLER_3_261
*1186 FILLER_3_273
*1187 FILLER_3_279
*1188 FILLER_3_28
*1189 FILLER_3_281
*1190 FILLER_3_293
*1191 FILLER_3_45
*1192 FILLER_3_53
*1193 FILLER_3_57
*1194 FILLER_3_67
*1195 FILLER_3_87
*1196 FILLER_3_99
*1197 FILLER_40_109
*1198 FILLER_40_121
*1199 FILLER_40_133
*1200 FILLER_40_139
*1201 FILLER_40_141
*1202 FILLER_40_153
*1203 FILLER_40_165
*1204 FILLER_40_17
*1205 FILLER_40_177
*1206 FILLER_40_189
*1207 FILLER_40_195
*1208 FILLER_40_197
*1209 FILLER_40_209
*1210 FILLER_40_221
*1211 FILLER_40_233
*1212 FILLER_40_245
*1213 FILLER_40_25
*1214 FILLER_40_251
*1215 FILLER_40_253
*1216 FILLER_40_265
*1217 FILLER_40_277
*1218 FILLER_40_289
*1219 FILLER_40_29
*1220 FILLER_40_297
*1221 FILLER_40_3
*1222 FILLER_40_41
*1223 FILLER_40_53
*1224 FILLER_40_65
*1225 FILLER_40_77
*1226 FILLER_40_83
*1227 FILLER_40_85
*1228 FILLER_40_97
*1229 FILLER_41_105
*1230 FILLER_41_111
*1231 FILLER_41_113
*1232 FILLER_41_125
*1233 FILLER_41_137
*1234 FILLER_41_149
*1235 FILLER_41_15
*1236 FILLER_41_161
*1237 FILLER_41_167
*1238 FILLER_41_169
*1239 FILLER_41_181
*1240 FILLER_41_193
*1241 FILLER_41_205
*1242 FILLER_41_217
*1243 FILLER_41_223
*1244 FILLER_41_225
*1245 FILLER_41_237
*1246 FILLER_41_249
*1247 FILLER_41_261
*1248 FILLER_41_27
*1249 FILLER_41_273
*1250 FILLER_41_279
*1251 FILLER_41_281
*1252 FILLER_41_293
*1253 FILLER_41_3
*1254 FILLER_41_39
*1255 FILLER_41_51
*1256 FILLER_41_55
*1257 FILLER_41_57
*1258 FILLER_41_69
*1259 FILLER_41_81
*1260 FILLER_41_93
*1261 FILLER_42_109
*1262 FILLER_42_121
*1263 FILLER_42_133
*1264 FILLER_42_139
*1265 FILLER_42_141
*1266 FILLER_42_15
*1267 FILLER_42_153
*1268 FILLER_42_165
*1269 FILLER_42_177
*1270 FILLER_42_189
*1271 FILLER_42_195
*1272 FILLER_42_197
*1273 FILLER_42_209
*1274 FILLER_42_221
*1275 FILLER_42_233
*1276 FILLER_42_245
*1277 FILLER_42_251
*1278 FILLER_42_253
*1279 FILLER_42_265
*1280 FILLER_42_27
*1281 FILLER_42_277
*1282 FILLER_42_289
*1283 FILLER_42_29
*1284 FILLER_42_297
*1285 FILLER_42_3
*1286 FILLER_42_41
*1287 FILLER_42_53
*1288 FILLER_42_65
*1289 FILLER_42_77
*1290 FILLER_42_83
*1291 FILLER_42_85
*1292 FILLER_42_97
*1293 FILLER_43_105
*1294 FILLER_43_111
*1295 FILLER_43_113
*1296 FILLER_43_125
*1297 FILLER_43_137
*1298 FILLER_43_149
*1299 FILLER_43_15
*1300 FILLER_43_161
*1301 FILLER_43_167
*1302 FILLER_43_169
*1303 FILLER_43_181
*1304 FILLER_43_193
*1305 FILLER_43_205
*1306 FILLER_43_217
*1307 FILLER_43_223
*1308 FILLER_43_225
*1309 FILLER_43_237
*1310 FILLER_43_249
*1311 FILLER_43_261
*1312 FILLER_43_27
*1313 FILLER_43_273
*1314 FILLER_43_279
*1315 FILLER_43_281
*1316 FILLER_43_293
*1317 FILLER_43_3
*1318 FILLER_43_39
*1319 FILLER_43_51
*1320 FILLER_43_55
*1321 FILLER_43_57
*1322 FILLER_43_69
*1323 FILLER_43_81
*1324 FILLER_43_93
*1325 FILLER_44_109
*1326 FILLER_44_121
*1327 FILLER_44_133
*1328 FILLER_44_139
*1329 FILLER_44_141
*1330 FILLER_44_15
*1331 FILLER_44_153
*1332 FILLER_44_165
*1333 FILLER_44_177
*1334 FILLER_44_189
*1335 FILLER_44_195
*1336 FILLER_44_197
*1337 FILLER_44_209
*1338 FILLER_44_221
*1339 FILLER_44_233
*1340 FILLER_44_245
*1341 FILLER_44_251
*1342 FILLER_44_253
*1343 FILLER_44_265
*1344 FILLER_44_27
*1345 FILLER_44_277
*1346 FILLER_44_289
*1347 FILLER_44_29
*1348 FILLER_44_297
*1349 FILLER_44_3
*1350 FILLER_44_41
*1351 FILLER_44_53
*1352 FILLER_44_65
*1353 FILLER_44_77
*1354 FILLER_44_83
*1355 FILLER_44_85
*1356 FILLER_44_97
*1357 FILLER_45_105
*1358 FILLER_45_111
*1359 FILLER_45_113
*1360 FILLER_45_125
*1361 FILLER_45_137
*1362 FILLER_45_149
*1363 FILLER_45_15
*1364 FILLER_45_161
*1365 FILLER_45_167
*1366 FILLER_45_169
*1367 FILLER_45_181
*1368 FILLER_45_193
*1369 FILLER_45_205
*1370 FILLER_45_217
*1371 FILLER_45_223
*1372 FILLER_45_225
*1373 FILLER_45_237
*1374 FILLER_45_249
*1375 FILLER_45_261
*1376 FILLER_45_27
*1377 FILLER_45_273
*1378 FILLER_45_279
*1379 FILLER_45_281
*1380 FILLER_45_293
*1381 FILLER_45_3
*1382 FILLER_45_39
*1383 FILLER_45_51
*1384 FILLER_45_55
*1385 FILLER_45_57
*1386 FILLER_45_69
*1387 FILLER_45_81
*1388 FILLER_45_93
*1389 FILLER_46_109
*1390 FILLER_46_121
*1391 FILLER_46_133
*1392 FILLER_46_139
*1393 FILLER_46_141
*1394 FILLER_46_15
*1395 FILLER_46_153
*1396 FILLER_46_165
*1397 FILLER_46_177
*1398 FILLER_46_189
*1399 FILLER_46_195
*1400 FILLER_46_197
*1401 FILLER_46_209
*1402 FILLER_46_221
*1403 FILLER_46_233
*1404 FILLER_46_245
*1405 FILLER_46_251
*1406 FILLER_46_253
*1407 FILLER_46_265
*1408 FILLER_46_27
*1409 FILLER_46_277
*1410 FILLER_46_289
*1411 FILLER_46_29
*1412 FILLER_46_297
*1413 FILLER_46_3
*1414 FILLER_46_41
*1415 FILLER_46_53
*1416 FILLER_46_65
*1417 FILLER_46_77
*1418 FILLER_46_83
*1419 FILLER_46_85
*1420 FILLER_46_97
*1421 FILLER_47_105
*1422 FILLER_47_111
*1423 FILLER_47_113
*1424 FILLER_47_125
*1425 FILLER_47_137
*1426 FILLER_47_149
*1427 FILLER_47_15
*1428 FILLER_47_161
*1429 FILLER_47_167
*1430 FILLER_47_169
*1431 FILLER_47_181
*1432 FILLER_47_193
*1433 FILLER_47_205
*1434 FILLER_47_217
*1435 FILLER_47_223
*1436 FILLER_47_225
*1437 FILLER_47_237
*1438 FILLER_47_249
*1439 FILLER_47_261
*1440 FILLER_47_27
*1441 FILLER_47_273
*1442 FILLER_47_279
*1443 FILLER_47_281
*1444 FILLER_47_293
*1445 FILLER_47_3
*1446 FILLER_47_39
*1447 FILLER_47_51
*1448 FILLER_47_55
*1449 FILLER_47_57
*1450 FILLER_47_69
*1451 FILLER_47_81
*1452 FILLER_47_93
*1453 FILLER_48_109
*1454 FILLER_48_121
*1455 FILLER_48_133
*1456 FILLER_48_139
*1457 FILLER_48_141
*1458 FILLER_48_15
*1459 FILLER_48_153
*1460 FILLER_48_165
*1461 FILLER_48_177
*1462 FILLER_48_189
*1463 FILLER_48_195
*1464 FILLER_48_197
*1465 FILLER_48_209
*1466 FILLER_48_221
*1467 FILLER_48_233
*1468 FILLER_48_24
*1469 FILLER_48_245
*1470 FILLER_48_251
*1471 FILLER_48_253
*1472 FILLER_48_265
*1473 FILLER_48_277
*1474 FILLER_48_289
*1475 FILLER_48_29
*1476 FILLER_48_297
*1477 FILLER_48_3
*1478 FILLER_48_41
*1479 FILLER_48_53
*1480 FILLER_48_65
*1481 FILLER_48_77
*1482 FILLER_48_83
*1483 FILLER_48_85
*1484 FILLER_48_97
*1485 FILLER_49_105
*1486 FILLER_49_111
*1487 FILLER_49_113
*1488 FILLER_49_125
*1489 FILLER_49_137
*1490 FILLER_49_149
*1491 FILLER_49_15
*1492 FILLER_49_161
*1493 FILLER_49_167
*1494 FILLER_49_169
*1495 FILLER_49_181
*1496 FILLER_49_193
*1497 FILLER_49_205
*1498 FILLER_49_217
*1499 FILLER_49_223
*1500 FILLER_49_225
*1501 FILLER_49_237
*1502 FILLER_49_249
*1503 FILLER_49_261
*1504 FILLER_49_27
*1505 FILLER_49_273
*1506 FILLER_49_279
*1507 FILLER_49_281
*1508 FILLER_49_293
*1509 FILLER_49_3
*1510 FILLER_49_39
*1511 FILLER_49_51
*1512 FILLER_49_55
*1513 FILLER_49_57
*1514 FILLER_49_69
*1515 FILLER_49_81
*1516 FILLER_49_93
*1517 FILLER_4_110
*1518 FILLER_4_122
*1519 FILLER_4_129
*1520 FILLER_4_137
*1521 FILLER_4_141
*1522 FILLER_4_153
*1523 FILLER_4_165
*1524 FILLER_4_177
*1525 FILLER_4_189
*1526 FILLER_4_19
*1527 FILLER_4_195
*1528 FILLER_4_197
*1529 FILLER_4_205
*1530 FILLER_4_214
*1531 FILLER_4_226
*1532 FILLER_4_238
*1533 FILLER_4_250
*1534 FILLER_4_253
*1535 FILLER_4_265
*1536 FILLER_4_27
*1537 FILLER_4_277
*1538 FILLER_4_289
*1539 FILLER_4_297
*1540 FILLER_4_33
*1541 FILLER_4_45
*1542 FILLER_4_57
*1543 FILLER_4_69
*1544 FILLER_4_81
*1545 FILLER_4_85
*1546 FILLER_4_89
*1547 FILLER_4_98
*1548 FILLER_50_109
*1549 FILLER_50_121
*1550 FILLER_50_133
*1551 FILLER_50_139
*1552 FILLER_50_141
*1553 FILLER_50_15
*1554 FILLER_50_153
*1555 FILLER_50_165
*1556 FILLER_50_177
*1557 FILLER_50_189
*1558 FILLER_50_195
*1559 FILLER_50_197
*1560 FILLER_50_209
*1561 FILLER_50_221
*1562 FILLER_50_233
*1563 FILLER_50_245
*1564 FILLER_50_251
*1565 FILLER_50_253
*1566 FILLER_50_265
*1567 FILLER_50_27
*1568 FILLER_50_277
*1569 FILLER_50_289
*1570 FILLER_50_29
*1571 FILLER_50_297
*1572 FILLER_50_3
*1573 FILLER_50_41
*1574 FILLER_50_53
*1575 FILLER_50_65
*1576 FILLER_50_77
*1577 FILLER_50_83
*1578 FILLER_50_85
*1579 FILLER_50_97
*1580 FILLER_51_105
*1581 FILLER_51_111
*1582 FILLER_51_113
*1583 FILLER_51_125
*1584 FILLER_51_137
*1585 FILLER_51_149
*1586 FILLER_51_161
*1587 FILLER_51_167
*1588 FILLER_51_169
*1589 FILLER_51_181
*1590 FILLER_51_193
*1591 FILLER_51_205
*1592 FILLER_51_21
*1593 FILLER_51_217
*1594 FILLER_51_223
*1595 FILLER_51_225
*1596 FILLER_51_237
*1597 FILLER_51_249
*1598 FILLER_51_261
*1599 FILLER_51_273
*1600 FILLER_51_279
*1601 FILLER_51_281
*1602 FILLER_51_293
*1603 FILLER_51_3
*1604 FILLER_51_33
*1605 FILLER_51_45
*1606 FILLER_51_53
*1607 FILLER_51_57
*1608 FILLER_51_69
*1609 FILLER_51_81
*1610 FILLER_51_9
*1611 FILLER_51_93
*1612 FILLER_52_10
*1613 FILLER_52_109
*1614 FILLER_52_121
*1615 FILLER_52_133
*1616 FILLER_52_139