*SPEF "ieee 1481-1999"
*DESIGN "razhas_top_level"
*DATE "11:11:11 Fri 11 11, 1111"
*VENDOR "OpenRCX"
*PROGRAM "Parallel Extraction"
*VERSION "1.0"
*DESIGN_FLOW "NAME_SCOPE LOCAL" "PIN_CAP NONE"
*DIVIDER /
*DELIMITER :
*BUS_DELIMITER []
*T_UNIT 1 NS
*C_UNIT 1 PF
*R_UNIT 1 OHM
*L_UNIT 1 HENRY

*NAME_MAP
*1 io_in[0]
*2 io_in[1]
*3 io_in[2]
*4 io_in[3]
*5 io_in[4]
*6 io_in[5]
*7 io_in[6]
*8 io_in[7]
*9 io_out[0]
*10 net8
*11 net9
*12 net10
*13 net11
*14 net12
*15 net13
*16 net14
*19 _000_
*20 _001_
*21 _002_
*22 _003_
*23 _004_
*24 _005_
*25 _006_
*26 _007_
*27 _008_
*28 _009_
*29 _010_
*30 _011_
*31 _012_
*32 _013_
*33 _014_
*34 _015_
*35 _016_
*36 _017_
*37 _018_
*38 _019_
*39 _020_
*40 _021_
*41 _022_
*42 _023_
*43 _024_
*44 _025_
*45 _026_
*46 _027_
*47 _028_
*48 _029_
*49 _030_
*50 _031_
*51 _032_
*52 _033_
*53 _034_
*54 _035_
*55 _036_
*56 _037_
*57 _038_
*58 _039_
*59 _040_
*60 _041_
*61 _042_
*62 _043_
*63 _044_
*64 _045_
*65 _046_
*66 _047_
*67 _048_
*68 _049_
*69 _050_
*70 _051_
*71 _052_
*72 _053_
*73 _054_
*74 _055_
*75 _056_
*76 _057_
*77 _058_
*78 _059_
*79 _060_
*80 _061_
*81 _062_
*82 _063_
*83 _064_
*84 _065_
*85 _066_
*86 _067_
*87 _068_
*88 _069_
*89 _070_
*90 _071_
*91 _072_
*92 _073_
*93 _074_
*94 _075_
*95 _076_
*96 _077_
*97 _078_
*98 _079_
*99 _080_
*100 _081_
*101 _082_
*102 _083_
*103 _084_
*104 _085_
*105 clknet_0_io_in[0]
*106 clknet_1_0__leaf_io_in[0]
*107 clknet_1_1__leaf_io_in[0]
*108 net1
*109 net2
*110 net3
*111 net4
*112 net5
*113 net6
*114 net7
*115 u0\.o_pwm
*116 u0\.r_counter\[0\]
*117 u0\.r_counter\[1\]
*118 u0\.r_counter\[2\]
*119 u0\.r_counter\[3\]
*120 u0\.r_counter\[4\]
*121 u0\.r_counter\[5\]
*122 u0\.r_counter\[6\]
*123 FILLER_0_109
*124 FILLER_0_113
*125 FILLER_0_125
*126 FILLER_0_137
*127 FILLER_0_141
*128 FILLER_0_153
*129 FILLER_0_165
*130 FILLER_0_169
*131 FILLER_0_181
*132 FILLER_0_193
*133 FILLER_0_197
*134 FILLER_0_209
*135 FILLER_0_221
*136 FILLER_0_225
*137 FILLER_0_237
*138 FILLER_0_24
*139 FILLER_0_249
*140 FILLER_0_253
*141 FILLER_0_265
*142 FILLER_0_277
*143 FILLER_0_281
*144 FILLER_0_293
*145 FILLER_0_3
*146 FILLER_0_45
*147 FILLER_0_53
*148 FILLER_0_57
*149 FILLER_0_69
*150 FILLER_0_81
*151 FILLER_0_85
*152 FILLER_0_97
*153 FILLER_10_109
*154 FILLER_10_12
*155 FILLER_10_120
*156 FILLER_10_128
*157 FILLER_10_135
*158 FILLER_10_139
*159 FILLER_10_141
*160 FILLER_10_153
*161 FILLER_10_165
*162 FILLER_10_177
*163 FILLER_10_189
*164 FILLER_10_19
*165 FILLER_10_195
*166 FILLER_10_197
*167 FILLER_10_209
*168 FILLER_10_221
*169 FILLER_10_233
*170 FILLER_10_245
*171 FILLER_10_251
*172 FILLER_10_253
*173 FILLER_10_265
*174 FILLER_10_27
*175 FILLER_10_277
*176 FILLER_10_289
*177 FILLER_10_297
*178 FILLER_10_3
*179 FILLER_10_37
*180 FILLER_10_51
*181 FILLER_10_63
*182 FILLER_10_75
*183 FILLER_10_83
*184 FILLER_10_85
*185 FILLER_10_97
*186 FILLER_11_105
*187 FILLER_11_11
*188 FILLER_11_111
*189 FILLER_11_113
*190 FILLER_11_125
*191 FILLER_11_137
*192 FILLER_11_149
*193 FILLER_11_161
*194 FILLER_11_167
*195 FILLER_11_169
*196 FILLER_11_181
*197 FILLER_11_193
*198 FILLER_11_205
*199 FILLER_11_21
*200 FILLER_11_217
*201 FILLER_11_223
*202 FILLER_11_225
*203 FILLER_11_237
*204 FILLER_11_249
*205 FILLER_11_261
*206 FILLER_11_273
*207 FILLER_11_279
*208 FILLER_11_281
*209 FILLER_11_293
*210 FILLER_11_3
*211 FILLER_11_35
*212 FILLER_11_43
*213 FILLER_11_48
*214 FILLER_11_57
*215 FILLER_11_69
*216 FILLER_11_81
*217 FILLER_11_93
*218 FILLER_12_109
*219 FILLER_12_121
*220 FILLER_12_133
*221 FILLER_12_139
*222 FILLER_12_141
*223 FILLER_12_149
*224 FILLER_12_157
*225 FILLER_12_163
*226 FILLER_12_175
*227 FILLER_12_187
*228 FILLER_12_195
*229 FILLER_12_197
*230 FILLER_12_209
*231 FILLER_12_221
*232 FILLER_12_233
*233 FILLER_12_24
*234 FILLER_12_245
*235 FILLER_12_251
*236 FILLER_12_253
*237 FILLER_12_265
*238 FILLER_12_277
*239 FILLER_12_289
*240 FILLER_12_297
*241 FILLER_12_38
*242 FILLER_12_50
*243 FILLER_12_62
*244 FILLER_12_7
*245 FILLER_12_74
*246 FILLER_12_82
*247 FILLER_12_85
*248 FILLER_12_97
*249 FILLER_13_105
*250 FILLER_13_111
*251 FILLER_13_113
*252 FILLER_13_125
*253 FILLER_13_137
*254 FILLER_13_149
*255 FILLER_13_16
*256 FILLER_13_161
*257 FILLER_13_167
*258 FILLER_13_169
*259 FILLER_13_181
*260 FILLER_13_193
*261 FILLER_13_205
*262 FILLER_13_217
*263 FILLER_13_223
*264 FILLER_13_225
*265 FILLER_13_237
*266 FILLER_13_249
*267 FILLER_13_261
*268 FILLER_13_273
*269 FILLER_13_279
*270 FILLER_13_28
*271 FILLER_13_281
*272 FILLER_13_293
*273 FILLER_13_36
*274 FILLER_13_42
*275 FILLER_13_54
*276 FILLER_13_57
*277 FILLER_13_6
*278 FILLER_13_69
*279 FILLER_13_81
*280 FILLER_13_93
*281 FILLER_14_111
*282 FILLER_14_123
*283 FILLER_14_133
*284 FILLER_14_139
*285 FILLER_14_141
*286 FILLER_14_15
*287 FILLER_14_153
*288 FILLER_14_165
*289 FILLER_14_177
*290 FILLER_14_189
*291 FILLER_14_195
*292 FILLER_14_197
*293 FILLER_14_209
*294 FILLER_14_221
*295 FILLER_14_233
*296 FILLER_14_245
*297 FILLER_14_251
*298 FILLER_14_253
*299 FILLER_14_265
*300 FILLER_14_27
*301 FILLER_14_277
*302 FILLER_14_289
*303 FILLER_14_29
*304 FILLER_14_297
*305 FILLER_14_3
*306 FILLER_14_41
*307 FILLER_14_53
*308 FILLER_14_67
*309 FILLER_14_79
*310 FILLER_14_83
*311 FILLER_14_85
*312 FILLER_14_93
*313 FILLER_14_99
*314 FILLER_15_105
*315 FILLER_15_111
*316 FILLER_15_113
*317 FILLER_15_125
*318 FILLER_15_137
*319 FILLER_15_149
*320 FILLER_15_161
*321 FILLER_15_167
*322 FILLER_15_169
*323 FILLER_15_17
*324 FILLER_15_181
*325 FILLER_15_193
*326 FILLER_15_205
*327 FILLER_15_217
*328 FILLER_15_223
*329 FILLER_15_225
*330 FILLER_15_237
*331 FILLER_15_249
*332 FILLER_15_261
*333 FILLER_15_273
*334 FILLER_15_279
*335 FILLER_15_281
*336 FILLER_15_29
*337 FILLER_15_293
*338 FILLER_15_3
*339 FILLER_15_41
*340 FILLER_15_53
*341 FILLER_15_57
*342 FILLER_15_69
*343 FILLER_15_75
*344 FILLER_15_82
*345 FILLER_15_9
*346 FILLER_15_93
*347 FILLER_16_109
*348 FILLER_16_121
*349 FILLER_16_13
*350 FILLER_16_133
*351 FILLER_16_139
*352 FILLER_16_141
*353 FILLER_16_153
*354 FILLER_16_165
*355 FILLER_16_177
*356 FILLER_16_189
*357 FILLER_16_195
*358 FILLER_16_197
*359 FILLER_16_209
*360 FILLER_16_221
*361 FILLER_16_233
*362 FILLER_16_245
*363 FILLER_16_25
*364 FILLER_16_251
*365 FILLER_16_253
*366 FILLER_16_265
*367 FILLER_16_277
*368 FILLER_16_289
*369 FILLER_16_29
*370 FILLER_16_297
*371 FILLER_16_41
*372 FILLER_16_53
*373 FILLER_16_65
*374 FILLER_16_77
*375 FILLER_16_83
*376 FILLER_16_85
*377 FILLER_16_97
*378 FILLER_17_107
*379 FILLER_17_111
*380 FILLER_17_113
*381 FILLER_17_12
*382 FILLER_17_125
*383 FILLER_17_137
*384 FILLER_17_149
*385 FILLER_17_161
*386 FILLER_17_167
*387 FILLER_17_169
*388 FILLER_17_181
*389 FILLER_17_193
*390 FILLER_17_205
*391 FILLER_17_217
*392 FILLER_17_22
*393 FILLER_17_223
*394 FILLER_17_225
*395 FILLER_17_237
*396 FILLER_17_249
*397 FILLER_17_261
*398 FILLER_17_273
*399 FILLER_17_279
*400 FILLER_17_281
*401 FILLER_17_293
*402 FILLER_17_3
*403 FILLER_17_31
*404 FILLER_17_43
*405 FILLER_17_55
*406 FILLER_17_57
*407 FILLER_17_71
*408 FILLER_17_8
*409 FILLER_17_83
*410 FILLER_17_95
*411 FILLER_17_99
*412 FILLER_18_101
*413 FILLER_18_113
*414 FILLER_18_125
*415 FILLER_18_137
*416 FILLER_18_141
*417 FILLER_18_15
*418 FILLER_18_153
*419 FILLER_18_165
*420 FILLER_18_177
*421 FILLER_18_189
*422 FILLER_18_195
*423 FILLER_18_197
*424 FILLER_18_209
*425 FILLER_18_221
*426 FILLER_18_233
*427 FILLER_18_245
*428 FILLER_18_251
*429 FILLER_18_253
*430 FILLER_18_265
*431 FILLER_18_27
*432 FILLER_18_277
*433 FILLER_18_289
*434 FILLER_18_29
*435 FILLER_18_297
*436 FILLER_18_3
*437 FILLER_18_41
*438 FILLER_18_53
*439 FILLER_18_65
*440 FILLER_18_77
*441 FILLER_18_83
*442 FILLER_18_92
*443 FILLER_19_103
*444 FILLER_19_111
*445 FILLER_19_113
*446 FILLER_19_125
*447 FILLER_19_137
*448 FILLER_19_149
*449 FILLER_19_161
*450 FILLER_19_167
*451 FILLER_19_169
*452 FILLER_19_181
*453 FILLER_19_193
*454 FILLER_19_205
*455 FILLER_19_21
*456 FILLER_19_217
*457 FILLER_19_223
*458 FILLER_19_225
*459 FILLER_19_237
*460 FILLER_19_249
*461 FILLER_19_261
*462 FILLER_19_273
*463 FILLER_19_279
*464 FILLER_19_281
*465 FILLER_19_293
*466 FILLER_19_33
*467 FILLER_19_45
*468 FILLER_19_53
*469 FILLER_19_57
*470 FILLER_19_69
*471 FILLER_19_81
*472 FILLER_19_89
*473 FILLER_19_9
*474 FILLER_19_95
*475 FILLER_1_101
*476 FILLER_1_109
*477 FILLER_1_113
*478 FILLER_1_125
*479 FILLER_1_137
*480 FILLER_1_149
*481 FILLER_1_15
*482 FILLER_1_161
*483 FILLER_1_167
*484 FILLER_1_169
*485 FILLER_1_181
*486 FILLER_1_193
*487 FILLER_1_205
*488 FILLER_1_217
*489 FILLER_1_223
*490 FILLER_1_225
*491 FILLER_1_237
*492 FILLER_1_249
*493 FILLER_1_261
*494 FILLER_1_273
*495 FILLER_1_279
*496 FILLER_1_281
*497 FILLER_1_293
*498 FILLER_1_3
*499 FILLER_1_32
*500 FILLER_1_52
*501 FILLER_1_65
*502 FILLER_1_77
*503 FILLER_1_89
*504 FILLER_20_106
*505 FILLER_20_118
*506 FILLER_20_130
*507 FILLER_20_138
*508 FILLER_20_141
*509 FILLER_20_153
*510 FILLER_20_16
*511 FILLER_20_165
*512 FILLER_20_177
*513 FILLER_20_189
*514 FILLER_20_195
*515 FILLER_20_197
*516 FILLER_20_209
*517 FILLER_20_221
*518 FILLER_20_233
*519 FILLER_20_245
*520 FILLER_20_251
*521 FILLER_20_253
*522 FILLER_20_265
*523 FILLER_20_277
*524 FILLER_20_289
*525 FILLER_20_29
*526 FILLER_20_297
*527 FILLER_20_3
*528 FILLER_20_41
*529 FILLER_20_49
*530 FILLER_20_59
*531 FILLER_20_7
*532 FILLER_20_71
*533 FILLER_20_83
*534 FILLER_20_85
*535 FILLER_20_97
*536 FILLER_21_109
*537 FILLER_21_113
*538 FILLER_21_125
*539 FILLER_21_13
*540 FILLER_21_137
*541 FILLER_21_149
*542 FILLER_21_161
*543 FILLER_21_167
*544 FILLER_21_169
*545 FILLER_21_181
*546 FILLER_21_193
*547 FILLER_21_205
*548 FILLER_21_21
*549 FILLER_21_217
*550 FILLER_21_223
*551 FILLER_21_225
*552 FILLER_21_237
*553 FILLER_21_249
*554 FILLER_21_25
*555 FILLER_21_261
*556 FILLER_21_273
*557 FILLER_21_279
*558 FILLER_21_281
*559 FILLER_21_293
*560 FILLER_21_33
*561 FILLER_21_38
*562 FILLER_21_50
*563 FILLER_21_57
*564 FILLER_21_6
*565 FILLER_21_69
*566 FILLER_21_77
*567 FILLER_21_85
*568 FILLER_21_97
*569 FILLER_22_109
*570 FILLER_22_121
*571 FILLER_22_133
*572 FILLER_22_139
*573 FILLER_22_141
*574 FILLER_22_153
*575 FILLER_22_165
*576 FILLER_22_177
*577 FILLER_22_189
*578 FILLER_22_195
*579 FILLER_22_197
*580 FILLER_22_209
*581 FILLER_22_21
*582 FILLER_22_221
*583 FILLER_22_233
*584 FILLER_22_245
*585 FILLER_22_251
*586 FILLER_22_253
*587 FILLER_22_265
*588 FILLER_22_27
*589 FILLER_22_277
*590 FILLER_22_289
*591 FILLER_22_29
*592 FILLER_22_297
*593 FILLER_22_41
*594 FILLER_22_53
*595 FILLER_22_65
*596 FILLER_22_77
*597 FILLER_22_83
*598 FILLER_22_85
*599 FILLER_22_9
*600 FILLER_22_97
*601 FILLER_23_103
*602 FILLER_23_111
*603 FILLER_23_113
*604 FILLER_23_125
*605 FILLER_23_137
*606 FILLER_23_149
*607 FILLER_23_15
*608 FILLER_23_161
*609 FILLER_23_167
*610 FILLER_23_169
*611 FILLER_23_181
*612 FILLER_23_193
*613 FILLER_23_205
*614 FILLER_23_217
*615 FILLER_23_223
*616 FILLER_23_225
*617 FILLER_23_237
*618 FILLER_23_249
*619 FILLER_23_261
*620 FILLER_23_27
*621 FILLER_23_273
*622 FILLER_23_279
*623 FILLER_23_281
*624 FILLER_23_293
*625 FILLER_23_3
*626 FILLER_23_39
*627 FILLER_23_51
*628 FILLER_23_55
*629 FILLER_23_57
*630 FILLER_23_69
*631 FILLER_23_81
*632 FILLER_23_93
*633 FILLER_24_109
*634 FILLER_24_121
*635 FILLER_24_133
*636 FILLER_24_139
*637 FILLER_24_141
*638 FILLER_24_153
*639 FILLER_24_165
*640 FILLER_24_177
*641 FILLER_24_18
*642 FILLER_24_189
*643 FILLER_24_195
*644 FILLER_24_197
*645 FILLER_24_209
*646 FILLER_24_221
*647 FILLER_24_233
*648 FILLER_24_245
*649 FILLER_24_251
*650 FILLER_24_253
*651 FILLER_24_26
*652 FILLER_24_265
*653 FILLER_24_277
*654 FILLER_24_289
*655 FILLER_24_29
*656 FILLER_24_297
*657 FILLER_24_52
*658 FILLER_24_6
*659 FILLER_24_67
*660 FILLER_24_79
*661 FILLER_24_83
*662 FILLER_24_85
*663 FILLER_24_97
*664 FILLER_25_105
*665 FILLER_25_111
*666 FILLER_25_113
*667 FILLER_25_125
*668 FILLER_25_137
*669 FILLER_25_149
*670 FILLER_25_15
*671 FILLER_25_161
*672 FILLER_25_167
*673 FILLER_25_169
*674 FILLER_25_181
*675 FILLER_25_193
*676 FILLER_25_205
*677 FILLER_25_217
*678 FILLER_25_223
*679 FILLER_25_225
*680 FILLER_25_237
*681 FILLER_25_249
*682 FILLER_25_261
*683 FILLER_25_27
*684 FILLER_25_273
*685 FILLER_25_279
*686 FILLER_25_281
*687 FILLER_25_293
*688 FILLER_25_3
*689 FILLER_25_39
*690 FILLER_25_51
*691 FILLER_25_55
*692 FILLER_25_57
*693 FILLER_25_69
*694 FILLER_25_81
*695 FILLER_25_93
*696 FILLER_26_105
*697 FILLER_26_114
*698 FILLER_26_126
*699 FILLER_26_138
*700 FILLER_26_141
*701 FILLER_26_153
*702 FILLER_26_165
*703 FILLER_26_177
*704 FILLER_26_18
*705 FILLER_26_189
*706 FILLER_26_195
*707 FILLER_26_197
*708 FILLER_26_209
*709 FILLER_26_221
*710 FILLER_26_233
*711 FILLER_26_245
*712 FILLER_26_251
*713 FILLER_26_253
*714 FILLER_26_26
*715 FILLER_26_265
*716 FILLER_26_277
*717 FILLER_26_289
*718 FILLER_26_29
*719 FILLER_26_297
*720 FILLER_26_41
*721 FILLER_26_53
*722 FILLER_26_6
*723 FILLER_26_61
*724 FILLER_26_69
*725 FILLER_26_81
*726 FILLER_26_85
*727 FILLER_26_97
*728 FILLER_27_105
*729 FILLER_27_11
*730 FILLER_27_111
*731 FILLER_27_113
*732 FILLER_27_125
*733 FILLER_27_137
*734 FILLER_27_149
*735 FILLER_27_161
*736 FILLER_27_167
*737 FILLER_27_169
*738 FILLER_27_181
*739 FILLER_27_193
*740 FILLER_27_205
*741 FILLER_27_217
*742 FILLER_27_223
*743 FILLER_27_225
*744 FILLER_27_23
*745 FILLER_27_237
*746 FILLER_27_249
*747 FILLER_27_261
*748 FILLER_27_273
*749 FILLER_27_279
*750 FILLER_27_281
*751 FILLER_27_293
*752 FILLER_27_3
*753 FILLER_27_35
*754 FILLER_27_39
*755 FILLER_27_51
*756 FILLER_27_55
*757 FILLER_27_57
*758 FILLER_27_69
*759 FILLER_27_81
*760 FILLER_27_93
*761 FILLER_28_109
*762 FILLER_28_121
*763 FILLER_28_13
*764 FILLER_28_133
*765 FILLER_28_139
*766 FILLER_28_141
*767 FILLER_28_153
*768 FILLER_28_165
*769 FILLER_28_177
*770 FILLER_28_189
*771 FILLER_28_195
*772 FILLER_28_197
*773 FILLER_28_209
*774 FILLER_28_221
*775 FILLER_28_233
*776 FILLER_28_245
*777 FILLER_28_25
*778 FILLER_28_251
*779 FILLER_28_253
*780 FILLER_28_265
*781 FILLER_28_277
*782 FILLER_28_289
*783 FILLER_28_29
*784 FILLER_28_297
*785 FILLER_28_3
*786 FILLER_28_39
*787 FILLER_28_56
*788 FILLER_28_68
*789 FILLER_28_80
*790 FILLER_28_85
*791 FILLER_28_97
*792 FILLER_29_102
*793 FILLER_29_110
*794 FILLER_29_113
*795 FILLER_29_125
*796 FILLER_29_137
*797 FILLER_29_149
*798 FILLER_29_15
*799 FILLER_29_161
*800 FILLER_29_167
*801 FILLER_29_169
*802 FILLER_29_181
*803 FILLER_29_193
*804 FILLER_29_205
*805 FILLER_29_217
*806 FILLER_29_223
*807 FILLER_29_225
*808 FILLER_29_237
*809 FILLER_29_249
*810 FILLER_29_261
*811 FILLER_29_27
*812 FILLER_29_273
*813 FILLER_29_279
*814 FILLER_29_281
*815 FILLER_29_293
*816 FILLER_29_3
*817 FILLER_29_31
*818 FILLER_29_42
*819 FILLER_29_54
*820 FILLER_29_57
*821 FILLER_29_66
*822 FILLER_29_78
*823 FILLER_29_90
*824 FILLER_2_109
*825 FILLER_2_121
*826 FILLER_2_133
*827 FILLER_2_139
*828 FILLER_2_141
*829 FILLER_2_153
*830 FILLER_2_165
*831 FILLER_2_177
*832 FILLER_2_189
*833 FILLER_2_195
*834 FILLER_2_197
*835 FILLER_2_209
*836 FILLER_2_221
*837 FILLER_2_233
*838 FILLER_2_24
*839 FILLER_2_245
*840 FILLER_2_251
*841 FILLER_2_253
*842 FILLER_2_265
*843 FILLER_2_277
*844 FILLER_2_289
*845 FILLER_2_297
*846 FILLER_2_3
*847 FILLER_2_45
*848 FILLER_2_52
*849 FILLER_2_64
*850 FILLER_2_76
*851 FILLER_2_85
*852 FILLER_2_97
*853 FILLER_30_109
*854 FILLER_30_121
*855 FILLER_30_13
*856 FILLER_30_133
*857 FILLER_30_139
*858 FILLER_30_141
*859 FILLER_30_153
*860 FILLER_30_165
*861 FILLER_30_177
*862 FILLER_30_189
*863 FILLER_30_195
*864 FILLER_30_197
*865 FILLER_30_209
*866 FILLER_30_221
*867 FILLER_30_233
*868 FILLER_30_245
*869 FILLER_30_25
*870 FILLER_30_251
*871 FILLER_30_253
*872 FILLER_30_265
*873 FILLER_30_277
*874 FILLER_30_289
*875 FILLER_30_29
*876 FILLER_30_297
*877 FILLER_30_3
*878 FILLER_30_41
*879 FILLER_30_53
*880 FILLER_30_65
*881 FILLER_30_77
*882 FILLER_30_83
*883 FILLER_30_85
*884 FILLER_30_97
*885 FILLER_31_105
*886 FILLER_31_111
*887 FILLER_31_113
*888 FILLER_31_125
*889 FILLER_31_13
*890 FILLER_31_137
*891 FILLER_31_149
*892 FILLER_31_161
*893 FILLER_31_167
*894 FILLER_31_169
*895 FILLER_31_181
*896 FILLER_31_193
*897 FILLER_31_205
*898 FILLER_31_217
*899 FILLER_31_223
*900 FILLER_31_225
*901 FILLER_31_237
*902 FILLER_31_249
*903 FILLER_31_25
*904 FILLER_31_261
*905 FILLER_31_273
*906 FILLER_31_279
*907 FILLER_31_281
*908 FILLER_31_293
*909 FILLER_31_3
*910 FILLER_31_37
*911 FILLER_31_49
*912 FILLER_31_55
*913 FILLER_31_57
*914 FILLER_31_69
*915 FILLER_31_81
*916 FILLER_31_93
*917 FILLER_32_109
*918 FILLER_32_121
*919 FILLER_32_133
*920 FILLER_32_139
*921 FILLER_32_141
*922 FILLER_32_153
*923 FILLER_32_165
*924 FILLER_32_177
*925 FILLER_32_189
*926 FILLER_32_19
*927 FILLER_32_195
*928 FILLER_32_197
*929 FILLER_32_209
*930 FILLER_32_221
*931 FILLER_32_233
*932 FILLER_32_245
*933 FILLER_32_251
*934 FILLER_32_253
*935 FILLER_32_265
*936 FILLER_32_27
*937 FILLER_32_277
*938 FILLER_32_289
*939 FILLER_32_29
*940 FILLER_32_297
*941 FILLER_32_3
*942 FILLER_32_41
*943 FILLER_32_53
*944 FILLER_32_65
*945 FILLER_32_77
*946 FILLER_32_83
*947 FILLER_32_85
*948 FILLER_32_97
*949 FILLER_33_100
*950 FILLER_33_113
*951 FILLER_33_125
*952 FILLER_33_137
*953 FILLER_33_149
*954 FILLER_33_15
*955 FILLER_33_161
*956 FILLER_33_167
*957 FILLER_33_169
*958 FILLER_33_181
*959 FILLER_33_193
*960 FILLER_33_205
*961 FILLER_33_217
*962 FILLER_33_223
*963 FILLER_33_225
*964 FILLER_33_237
*965 FILLER_33_249
*966 FILLER_33_261
*967 FILLER_33_27
*968 FILLER_33_273
*969 FILLER_33_279
*970 FILLER_33_281
*971 FILLER_33_293
*972 FILLER_33_3
*973 FILLER_33_39
*974 FILLER_33_51
*975 FILLER_33_55
*976 FILLER_33_57
*977 FILLER_33_64
*978 FILLER_33_76
*979 FILLER_33_88
*980 FILLER_34_109
*981 FILLER_34_121
*982 FILLER_34_133
*983 FILLER_34_139
*984 FILLER_34_141
*985 FILLER_34_15
*986 FILLER_34_153
*987 FILLER_34_165
*988 FILLER_34_177
*989 FILLER_34_189
*990 FILLER_34_195
*991 FILLER_34_197
*992 FILLER_34_209
*993 FILLER_34_221
*994 FILLER_34_233
*995 FILLER_34_245
*996 FILLER_34_251
*997 FILLER_34_253
*998 FILLER_34_265
*999 FILLER_34_27
*1000 FILLER_34_277
*1001 FILLER_34_289
*1002 FILLER_34_29
*1003 FILLER_34_297
*1004 FILLER_34_3
*1005 FILLER_34_41
*1006 FILLER_34_53
*1007 FILLER_34_65
*1008 FILLER_34_77
*1009 FILLER_34_83
*1010 FILLER_34_85
*1011 FILLER_34_97
*1012 FILLER_35_105
*1013 FILLER_35_111
*1014 FILLER_35_113
*1015 FILLER_35_125
*1016 FILLER_35_137
*1017 FILLER_35_149
*1018 FILLER_35_161
*1019 FILLER_35_167
*1020 FILLER_35_169
*1021 FILLER_35_18
*1022 FILLER_35_181
*1023 FILLER_35_193
*1024 FILLER_35_205
*1025 FILLER_35_217
*1026 FILLER_35_223
*1027 FILLER_35_225
*1028 FILLER_35_237
*1029 FILLER_35_249
*1030 FILLER_35_261
*1031 FILLER_35_273
*1032 FILLER_35_279
*1033 FILLER_35_281
*1034 FILLER_35_293
*1035 FILLER_35_30
*1036 FILLER_35_42
*1037 FILLER_35_54
*1038 FILLER_35_57
*1039 FILLER_35_6
*1040 FILLER_35_69
*1041 FILLER_35_81
*1042 FILLER_35_93
*1043 FILLER_36_109
*1044 FILLER_36_121
*1045 FILLER_36_133
*1046 FILLER_36_139
*1047 FILLER_36_141
*1048 FILLER_36_15
*1049 FILLER_36_153
*1050 FILLER_36_165
*1051 FILLER_36_177
*1052 FILLER_36_189
*1053 FILLER_36_195
*1054 FILLER_36_197
*1055 FILLER_36_209
*1056 FILLER_36_221
*1057 FILLER_36_233
*1058 FILLER_36_245
*1059 FILLER_36_251
*1060 FILLER_36_253
*1061 FILLER_36_265
*1062 FILLER_36_27
*1063 FILLER_36_277
*1064 FILLER_36_289
*1065 FILLER_36_29
*1066 FILLER_36_297
*1067 FILLER_36_3
*1068 FILLER_36_41
*1069 FILLER_36_53
*1070 FILLER_36_65
*1071 FILLER_36_77
*1072 FILLER_36_83
*1073 FILLER_36_85
*1074 FILLER_36_97
*1075 FILLER_37_105
*1076 FILLER_37_111
*1077 FILLER_37_113
*1078 FILLER_37_125
*1079 FILLER_37_137
*1080 FILLER_37_149
*1081 FILLER_37_15
*1082 FILLER_37_161
*1083 FILLER_37_167
*1084 FILLER_37_169
*1085 FILLER_37_181
*1086 FILLER_37_193
*1087 FILLER_37_205
*1088 FILLER_37_217
*1089 FILLER_37_223
*1090 FILLER_37_225
*1091 FILLER_37_237
*1092 FILLER_37_249
*1093 FILLER_37_261
*1094 FILLER_37_27
*1095 FILLER_37_273
*1096 FILLER_37_279
*1097 FILLER_37_281
*1098 FILLER_37_293
*1099 FILLER_37_3
*1100 FILLER_37_39
*1101 FILLER_37_51
*1102 FILLER_37_55
*1103 FILLER_37_57
*1104 FILLER_37_69
*1105 FILLER_37_81
*1106 FILLER_37_93
*1107 FILLER_38_109
*1108 FILLER_38_121
*1109 FILLER_38_133
*1110 FILLER_38_139
*1111 FILLER_38_141
*1112 FILLER_38_15
*1113 FILLER_38_153
*1114 FILLER_38_165
*1115 FILLER_38_177
*1116 FILLER_38_189
*1117 FILLER_38_195
*1118 FILLER_38_197
*1119 FILLER_38_209
*1120 FILLER_38_221
*1121 FILLER_38_233
*1122 FILLER_38_245
*1123 FILLER_38_251
*1124 FILLER_38_253
*1125 FILLER_38_265
*1126 FILLER_38_27
*1127 FILLER_38_277
*1128 FILLER_38_289
*1129 FILLER_38_29
*1130 FILLER_38_297
*1131 FILLER_38_3
*1132 FILLER_38_41
*1133 FILLER_38_53
*1134 FILLER_38_65
*1135 FILLER_38_77
*1136 FILLER_38_83
*1137 FILLER_38_85
*1138 FILLER_38_97
*1139 FILLER_39_105
*1140 FILLER_39_111
*1141 FILLER_39_113
*1142 FILLER_39_125
*1143 FILLER_39_137
*1144 FILLER_39_149
*1145 FILLER_39_161
*1146 FILLER_39_167
*1147 FILLER_39_169
*1148 FILLER_39_18
*1149 FILLER_39_181
*1150 FILLER_39_193
*1151 FILLER_39_205
*1152 FILLER_39_217
*1153 FILLER_39_223
*1154 FILLER_39_225
*1155 FILLER_39_237
*1156 FILLER_39_249
*1157 FILLER_39_261
*1158 FILLER_39_273
*1159 FILLER_39_279
*1160 FILLER_39_281
*1161 FILLER_39_293
*1162 FILLER_39_30
*1163 FILLER_39_42
*1164 FILLER_39_54
*1165 FILLER_39_57
*1166 FILLER_39_6
*1167 FILLER_39_69
*1168 FILLER_39_81
*1169 FILLER_39_93
*1170 FILLER_3_105
*1171 FILLER_3_111
*1172 FILLER_3_113
*1173 FILLER_3_125
*1174 FILLER_3_137
*1175 FILLER_3_149
*1176 FILLER_3_15
*1177 FILLER_3_161
*1178 FILLER_3_167
*1179 FILLER_3_169
*1180 FILLER_3_181
*1181 FILLER_3_193
*1182 FILLER_3_205
*1183 FILLER_3_217
*1184 FILLER_3_223
*1185 FILLER_3_225
*1186 FILLER_3_237
*1187 FILLER_3_249
*1188 FILLER_3_261
*1189 FILLER_3_273
*1190 FILLER_3_279
*1191 FILLER_3_281
*1192 FILLER_3_293
*1193 FILLER_3_3
*1194 FILLER_3_38
*1195 FILLER_3_50
*1196 FILLER_3_57
*1197 FILLER_3_69
*1198 FILLER_3_81
*1199 FILLER_3_93
*1200 FILLER_40_109
*1201 FILLER_40_121
*1202 FILLER_40_133
*1203 FILLER_40_139
*1204 FILLER_40_141
*1205 FILLER_40_15
*1206 FILLER_40_153
*1207 FILLER_40_165
*1208 FILLER_40_177
*1209 FILLER_40_189
*1210 FILLER_40_195
*1211 FILLER_40_197
*1212 FILLER_40_209
*1213 FILLER_40_221
*1214 FILLER_40_233
*1215 FILLER_40_245
*1216 FILLER_40_251
*1217 FILLER_40_253
*1218 FILLER_40_265
*1219 FILLER_40_27
*1220 FILLER_40_277
*1221 FILLER_40_289
*1222 FILLER_40_29
*1223 FILLER_40_297
*1224 FILLER_40_3
*1225 FILLER_40_41
*1226 FILLER_40_53
*1227 FILLER_40_65
*1228 FILLER_40_77
*1229 FILLER_40_83
*1230 FILLER_40_85
*1231 FILLER_40_97
*1232 FILLER_41_105
*1233 FILLER_41_111
*1234 FILLER_41_113
*1235 FILLER_41_125
*1236 FILLER_41_137
*1237 FILLER_41_149
*1238 FILLER_41_15
*1239 FILLER_41_161
*1240 FILLER_41_167
*1241 FILLER_41_169
*1242 FILLER_41_181
*1243 FILLER_41_193
*1244 FILLER_41_205
*1245 FILLER_41_217
*1246 FILLER_41_223
*1247 FILLER_41_225
*1248 FILLER_41_237
*1249 FILLER_41_249
*1250 FILLER_41_261
*1251 FILLER_41_27
*1252 FILLER_41_273
*1253 FILLER_41_279
*1254 FILLER_41_281
*1255 FILLER_41_293
*1256 FILLER_41_3
*1257 FILLER_41_39
*1258 FILLER_41_51
*1259 FILLER_41_55
*1260 FILLER_41_57
*1261 FILLER_41_69
*1262 FILLER_41_81
*1263 FILLER_41_93
*1264 FILLER_42_109
*1265 FILLER_42_121
*1266 FILLER_42_133
*1267 FILLER_42_139
*1268 FILLER_42_141
*1269 FILLER_42_153
*1270 FILLER_42_165
*1271 FILLER_42_177
*1272 FILLER_42_18
*1273 FILLER_42_189
*1274 FILLER_42_195
*1275 FILLER_42_197
*1276 FILLER_42_209
*1277 FILLER_42_221
*1278 FILLER_42_233
*1279 FILLER_42_245
*1280 FILLER_42_251
*1281 FILLER_42_253
*1282 FILLER_42_26
*1283 FILLER_42_265
*1284 FILLER_42_277
*1285 FILLER_42_289
*1286 FILLER_42_29
*1287 FILLER_42_297
*1288 FILLER_42_41
*1289 FILLER_42_53
*1290 FILLER_42_6
*1291 FILLER_42_65
*1292 FILLER_42_77
*1293 FILLER_42_83
*1294 FILLER_42_85
*1295 FILLER_42_97
*1296 FILLER_43_105
*1297 FILLER_43_111
*1298 FILLER_43_113
*1299 FILLER_43_125
*1300 FILLER_43_137
*1301 FILLER_43_149
*1302 FILLER_43_15
*1303 FILLER_43_161
*1304 FILLER_43_167
*1305 FILLER_43_169
*1306 FILLER_43_181
*1307 FILLER_43_193
*1308 FILLER_43_205
*1309 FILLER_43_217
*1310 FILLER_43_223
*1311 FILLER_43_225
*1312 FILLER_43_237
*1313 FILLER_43_249
*1314 FILLER_43_261
*1315 FILLER_43_27
*1316 FILLER_43_273
*1317 FILLER_43_279
*1318 FILLER_43_281
*1319 FILLER_43_293
*1320 FILLER_43_3
*1321 FILLER_43_39
*1322 FILLER_43_51
*1323 FILLER_43_55
*1324 FILLER_43_57
*1325 FILLER_43_69
*1326 FILLER_43_81
*1327 FILLER_43_93
*1328 FILLER_44_109
*1329 FILLER_44_121
*1330 FILLER_44_133
*1331 FILLER_44_139
*1332 FILLER_44_141
*1333 FILLER_44_15
*1334 FILLER_44_153
*1335 FILLER_44_165
*1336 FILLER_44_177
*1337 FILLER_44_189
*1338 FILLER_44_195
*1339 FILLER_44_197
*1340 FILLER_44_209
*1341 FILLER_44_221
*1342 FILLER_44_233
*1343 FILLER_44_245
*1344 FILLER_44_251
*1345 FILLER_44_253
*1346 FILLER_44_265
*1347 FILLER_44_27
*1348 FILLER_44_277
*1349 FILLER_44_289
*1350 FILLER_44_29
*1351 FILLER_44_297
*1352 FILLER_44_3
*1353 FILLER_44_41
*1354 FILLER_44_53
*1355 FILLER_44_65
*1356 FILLER_44_77
*1357 FILLER_44_83
*1358 FILLER_44_85
*1359 FILLER_44_97
*1360 FILLER_45_105
*1361 FILLER_45_111
*1362 FILLER_45_113
*1363 FILLER_45_125
*1364 FILLER_45_137
*1365 FILLER_45_149
*1366 FILLER_45_15
*1367 FILLER_45_161
*1368 FILLER_45_167
*1369 FILLER_45_169
*1370 FILLER_45_181
*1371 FILLER_45_193
*1372 FILLER_45_205
*1373 FILLER_45_217
*1374 FILLER_45_223
*1375 FILLER_45_225
*1376 FILLER_45_237
*1377 FILLER_45_249
*1378 FILLER_45_261
*1379 FILLER_45_27
*1380 FILLER_45_273
*1381 FILLER_45_279
*1382 FILLER_45_281
*1383 FILLER_45_293
*1384 FILLER_45_3
*1385 FILLER_45_39
*1386 FILLER_45_51
*1387 FILLER_45_55
*1388 FILLER_45_57
*1389 FILLER_45_69
*1390 FILLER_45_81
*1391 FILLER_45_93
*1392 FILLER_46_109
*1393 FILLER_46_121
*1394 FILLER_46_133
*1395 FILLER_46_139
*1396 FILLER_46_141
*1397 FILLER_46_153
*1398 FILLER_46_165
*1399 FILLER_46_177
*1400 FILLER_46_18
*1401 FILLER_46_189
*1402 FILLER_46_195
*1403 FILLER_46_197
*1404 FILLER_46_209
*1405 FILLER_46_221
*1406 FILLER_46_233
*1407 FILLER_46_245
*1408 FILLER_46_251
*1409 FILLER_46_253
*1410 FILLER_46_26
*1411 FILLER_46_265
*1412 FILLER_46_277
*1413 FILLER_46_289
*1414 FILLER_46_29
*1415 FILLER_46_297
*1416 FILLER_46_41
*1417 FILLER_46_53
*1418 FILLER_46_6
*1419 FILLER_46_65
*1420 FILLER_46_77
*1421 FILLER_46_83
*1422 FILLER_46_85
*1423 FILLER_46_97
*1424 FILLER_47_105
*1425 FILLER_47_111
*1426 FILLER_47_113
*1427 FILLER_47_125
*1428 FILLER_47_137
*1429 FILLER_47_149
*1430 FILLER_47_15
*1431 FILLER_47_161
*1432 FILLER_47_167
*1433 FILLER_47_169
*1434 FILLER_47_181
*1435 FILLER_47_193
*1436 FILLER_47_205
*1437 FILLER_47_217
*1438 FILLER_47_223
*1439 FILLER_47_225
*1440 FILLER_47_237
*1441 FILLER_47_249
*1442 FILLER_47_261
*1443 FILLER_47_27
*1444 FILLER_47_273
*1445 FILLER_47_279
*1446 FILLER_47_281
*1447 FILLER_47_293
*1448 FILLER_47_3
*1449 FILLER_47_39
*1450 FILLER_47_51
*1451 FILLER_47_55
*1452 FILLER_47_57
*1453 FILLER_47_69
*1454 FILLER_47_81
*1455 FILLER_47_93
*1456 FILLER_48_109
*1457 FILLER_48_121
*1458 FILLER_48_133
*1459 FILLER_48_139
*1460 FILLER_48_141
*1461 FILLER_48_15
*1462 FILLER_48_153
*1463 FILLER_48_165
*1464 FILLER_48_177
*1465 FILLER_48_189
*1466 FILLER_48_195
*1467 FILLER_48_197
*1468 FILLER_48_209
*1469 FILLER_48_221
*1470 FILLER_48_233
*1471 FILLER_48_245
*1472 FILLER_48_251
*1473 FILLER_48_253
*1474 FILLER_48_265
*1475 FILLER_48_27
*1476 FILLER_48_277
*1477 FILLER_48_289
*1478 FILLER_48_29
*1479 FILLER_48_297
*1480 FILLER_48_3
*1481 FILLER_48_41
*1482 FILLER_48_53
*1483 FILLER_48_65
*1484 FILLER_48_77
*1485 FILLER_48_83
*1486 FILLER_48_85
*1487 FILLER_48_97
*1488 FILLER_49_105
*1489 FILLER_49_111
*1490 FILLER_49_113
*1491 FILLER_49_125
*1492 FILLER_49_137
*1493 FILLER_49_149
*1494 FILLER_49_15
*1495 FILLER_49_161
*1496 FILLER_49_167
*1497 FILLER_49_169
*1498 FILLER_49_181
*1499 FILLER_49_193
*1500 FILLER_49_205
*1501 FILLER_49_217
*1502 FILLER_49_223
*1503 FILLER_49_225
*1504 FILLER_49_237
*1505 FILLER_49_249
*1506 FILLER_49_261
*1507 FILLER_49_27
*1508 FILLER_49_273
*1509 FILLER_49_279
*1510 FILLER_49_281
*1511 FILLER_49_293
*1512 FILLER_49_3
*1513 FILLER_49_39
*1514 FILLER_49_51
*1515 FILLER_49_55
*1516 FILLER_49_57
*1517 FILLER_49_69
*1518 FILLER_49_81
*1519 FILLER_49_93
*1520 FILLER_4_109
*1521 FILLER_4_121
*1522 FILLER_4_133
*1523 FILLER_4_139
*1524 FILLER_4_141
*1525 FILLER_4_153
*1526 FILLER_4_165
*1527 FILLER_4_177
*1528 FILLER_4_189
*1529 FILLER_4_195
*1530 FILLER_4_197
*1531 FILLER_4_209
*1532 FILLER_4_22
*1533 FILLER_4_221
*1534 FILLER_4_233
*1535 FILLER_4_245
*1536 FILLER_4_251
*1537 FILLER_4_253
*1538 FILLER_4_265
*1539 FILLER_4_277
*1540 FILLER_4_289
*1541 FILLER_4_29
*1542 FILLER_4_297
*1543 FILLER_4_3
*1544 FILLER_4_41
*1545 FILLER_4_47
*1546 FILLER_4_52
*1547 FILLER_4_61
*1548 FILLER_4_68
*1549 FILLER_4_80
*1550 FILLER_4_85
*1551 FILLER_4_97
*1552 FILLER_50_109
*1553 FILLER_50_121
*1554 FILLER_50_133
*1555 FILLER_50_139
*1556 FILLER_50_141
*1557 FILLER_50_153
*1558 FILLER_50_165
*1559 FILLER_50_177
*1560 FILLER_50_18
*1561 FILLER_50_189
*1562 FILLER_50_195
*1563 FILLER_50_197
*1564 FILLER_50_209
*1565 FILLER_50_221
*1566 FILLER_50_233
*1567 FILLER_50_245
*1568 FILLER_50_251
*1569 FILLER_50_253
*1570 FILLER_50_26
*1571 FILLER_50_265
*1572 FILLER_50_277
*1573 FILLER_50_289
*1574 FILLER_50_29
*1575 FILLER_50_297
*1576 FILLER_50_41
*1577 FILLER_50_53
*1578 FILLER_50_6
*1579 FILLER_50_65
*1580 FILLER_50_77
*1581 FILLER_50_83
*1582 FILLER_50_85
*1583 FILLER_50_97
*1584 FILLER_51_105
*1585 FILLER_51_111
*1586 FILLER_51_113
*1587 FILLER_51_125
*1588 FILLER_51_137
*1589 FILLER_51_149
*1590 FILLER_51_15
*1591 FILLER_51_161
*1592 FILLER_51_167
*1593 FILLER_51_169
*1594 FILLER_51_181
*1595 FILLER_51_193
*1596 FILLER_51_205
*1597 FILLER_51_217
*1598 FILLER_51_223
*1599 FILLER_51_225
*1600 FILLER_51_237
*1601 FILLER_51_249
*1602 FILLER_51_261
*1603 FILLER_51_27
*1604 FILLER_51_273
*1605 FILLER_51_279
*1606 FILLER_51_281
*1607 FILLER_51_293
*1608 FILLER_51_3
*1609 FILLER_51_39
*1610 FILLER_51_51
*1611 FILLER_51_55
*1612 FILLER_51_57
*1613 FILLER_51_69
*1614 FILLER_51_81
*1615 FILLER_51_93