*SPEF "ieee 1481-1999"
*DESIGN "rc5_top"
*DATE "11:11:11 Fri 11 11, 1111"
*VENDOR "OpenRCX"
*PROGRAM "Parallel Extraction"
*VERSION "1.0"
*DESIGN_FLOW "NAME_SCOPE LOCAL" "PIN_CAP NONE"
*DIVIDER /
*DELIMITER :
*BUS_DELIMITER []
*T_UNIT 1 NS
*C_UNIT 1 PF
*R_UNIT 1 OHM
*L_UNIT 1 HENRY

*NAME_MAP
*1 io_in[0]
*2 io_in[1]
*3 io_in[2]
*4 io_in[3]
*5 io_in[4]
*6 io_in[5]
*7 io_in[6]
*8 io_in[7]
*9 io_out[0]
*10 io_out[1]
*11 io_out[2]
*12 io_out[3]
*13 io_out[4]
*14 io_out[5]
*15 io_out[6]
*16 net3
*19 _000_
*20 _001_
*21 _002_
*22 _003_
*23 _004_
*24 _005_
*25 _006_
*26 _007_
*27 _008_
*28 _009_
*29 _010_
*30 _011_
*31 _012_
*32 _013_
*33 _014_
*34 _015_
*35 _016_
*36 _017_
*37 _018_
*38 _019_
*39 _020_
*40 _021_
*41 _022_
*42 _023_
*43 _024_
*44 _025_
*45 _026_
*46 _027_
*47 _028_
*48 _029_
*49 _030_
*50 _031_
*51 _032_
*52 _033_
*53 _034_
*54 _035_
*55 _036_
*56 _037_
*57 _038_
*58 _039_
*59 _040_
*60 _041_
*61 _042_
*62 _043_
*63 _044_
*64 _045_
*65 _046_
*66 _047_
*67 _048_
*68 _049_
*69 _050_
*70 _051_
*71 _052_
*72 _053_
*73 _054_
*74 _055_
*75 _056_
*76 _057_
*77 _058_
*78 _059_
*79 _060_
*80 _061_
*81 _062_
*82 _063_
*83 _064_
*84 _065_
*85 _066_
*86 _067_
*87 _068_
*88 _069_
*89 _070_
*90 _071_
*91 _072_
*92 _073_
*93 _074_
*94 _075_
*95 _076_
*96 _077_
*97 _078_
*98 _079_
*99 _080_
*100 _081_
*101 _082_
*102 _083_
*103 _084_
*104 _085_
*105 _086_
*106 _087_
*107 _088_
*108 _089_
*109 _090_
*110 _091_
*111 _092_
*112 _093_
*113 _094_
*114 _095_
*115 _096_
*116 _097_
*117 _098_
*118 _099_
*119 _100_
*120 _101_
*121 _102_
*122 _103_
*123 _104_
*124 _105_
*125 _106_
*126 _107_
*127 _108_
*128 _109_
*129 _110_
*130 _111_
*131 _112_
*132 _113_
*133 _114_
*134 _115_
*135 _116_
*136 _117_
*137 _118_
*138 _119_
*139 _120_
*140 _121_
*141 _122_
*142 _123_
*143 _124_
*144 clknet_0_io_in[0]
*145 clknet_2_0__leaf_io_in[0]
*146 clknet_2_1__leaf_io_in[0]
*147 clknet_2_2__leaf_io_in[0]
*148 clknet_2_3__leaf_io_in[0]
*149 control_d
*150 net1
*151 net2
*152 rc5\.active
*153 rc5\.counter\[0\]
*154 rc5\.counter\[1\]
*155 rc5\.counter\[2\]
*156 rc5\.counter\[3\]
*157 rc5\.o_command\[0\]
*158 rc5\.o_command\[1\]
*159 rc5\.o_command\[2\]
*160 rc5\.o_command\[3\]
*161 rc5\.o_command\[4\]
*162 rc5\.o_command\[5\]
*163 rc5\.o_control
*164 rc5\.o_valid
*165 rc5\.sr\[0\]
*166 rc5\.sr\[10\]
*167 rc5\.sr\[11\]
*168 rc5\.sr\[1\]
*169 rc5\.sr\[2\]
*170 rc5\.sr\[3\]
*171 rc5\.sr\[4\]
*172 rc5\.sr\[5\]
*173 rc5\.sr\[6\]
*174 rc5\.sr\[7\]
*175 rc5\.sr\[8\]
*176 rc5\.sr\[9\]
*177 seg7\.counter\[0\]
*178 seg7\.counter\[1\]
*179 seg7\.counter\[2\]
*180 seg7\.counter\[3\]
*181 FILLER_0_101
*182 FILLER_0_109
*183 FILLER_0_113
*184 FILLER_0_125
*185 FILLER_0_137
*186 FILLER_0_141
*187 FILLER_0_153
*188 FILLER_0_165
*189 FILLER_0_169
*190 FILLER_0_181
*191 FILLER_0_19
*192 FILLER_0_193
*193 FILLER_0_197
*194 FILLER_0_209
*195 FILLER_0_221
*196 FILLER_0_225
*197 FILLER_0_237
*198 FILLER_0_249
*199 FILLER_0_253
*200 FILLER_0_265
*201 FILLER_0_27
*202 FILLER_0_277
*203 FILLER_0_281
*204 FILLER_0_29
*205 FILLER_0_293
*206 FILLER_0_35
*207 FILLER_0_52
*208 FILLER_0_73
*209 FILLER_0_81
*210 FILLER_10_100
*211 FILLER_10_104
*212 FILLER_10_116
*213 FILLER_10_128
*214 FILLER_10_141
*215 FILLER_10_153
*216 FILLER_10_165
*217 FILLER_10_177
*218 FILLER_10_189
*219 FILLER_10_19
*220 FILLER_10_195
*221 FILLER_10_197
*222 FILLER_10_209
*223 FILLER_10_221
*224 FILLER_10_233
*225 FILLER_10_245
*226 FILLER_10_251
*227 FILLER_10_253
*228 FILLER_10_265
*229 FILLER_10_27
*230 FILLER_10_277
*231 FILLER_10_289
*232 FILLER_10_29
*233 FILLER_10_297
*234 FILLER_10_37
*235 FILLER_10_55
*236 FILLER_10_67
*237 FILLER_10_79
*238 FILLER_10_83
*239 FILLER_10_94
*240 FILLER_11_104
*241 FILLER_11_113
*242 FILLER_11_125
*243 FILLER_11_137
*244 FILLER_11_141
*245 FILLER_11_146
*246 FILLER_11_15
*247 FILLER_11_158
*248 FILLER_11_166
*249 FILLER_11_172
*250 FILLER_11_184
*251 FILLER_11_196
*252 FILLER_11_208
*253 FILLER_11_220
*254 FILLER_11_225
*255 FILLER_11_237
*256 FILLER_11_249
*257 FILLER_11_261
*258 FILLER_11_273
*259 FILLER_11_279
*260 FILLER_11_281
*261 FILLER_11_293
*262 FILLER_11_3
*263 FILLER_11_32
*264 FILLER_11_52
*265 FILLER_11_73
*266 FILLER_11_81
*267 FILLER_11_93
*268 FILLER_12_102
*269 FILLER_12_114
*270 FILLER_12_124
*271 FILLER_12_136
*272 FILLER_12_150
*273 FILLER_12_162
*274 FILLER_12_174
*275 FILLER_12_186
*276 FILLER_12_19
*277 FILLER_12_194
*278 FILLER_12_197
*279 FILLER_12_209
*280 FILLER_12_221
*281 FILLER_12_233
*282 FILLER_12_245
*283 FILLER_12_251
*284 FILLER_12_253
*285 FILLER_12_265
*286 FILLER_12_27
*287 FILLER_12_277
*288 FILLER_12_289
*289 FILLER_12_29
*290 FILLER_12_297
*291 FILLER_12_37
*292 FILLER_12_55
*293 FILLER_12_67
*294 FILLER_12_79
*295 FILLER_12_83
*296 FILLER_12_85
*297 FILLER_12_90
*298 FILLER_13_110
*299 FILLER_13_113
*300 FILLER_13_125
*301 FILLER_13_131
*302 FILLER_13_142
*303 FILLER_13_150
*304 FILLER_13_160
*305 FILLER_13_169
*306 FILLER_13_175
*307 FILLER_13_186
*308 FILLER_13_198
*309 FILLER_13_210
*310 FILLER_13_222
*311 FILLER_13_225
*312 FILLER_13_237
*313 FILLER_13_249
*314 FILLER_13_261
*315 FILLER_13_273
*316 FILLER_13_279
*317 FILLER_13_281
*318 FILLER_13_293
*319 FILLER_13_3
*320 FILLER_13_31
*321 FILLER_13_35
*322 FILLER_13_52
*323 FILLER_13_57
*324 FILLER_13_69
*325 FILLER_13_77
*326 FILLER_13_84
*327 FILLER_13_92
*328 FILLER_13_98
*329 FILLER_14_109
*330 FILLER_14_119
*331 FILLER_14_131
*332 FILLER_14_139
*333 FILLER_14_141
*334 FILLER_14_153
*335 FILLER_14_165
*336 FILLER_14_177
*337 FILLER_14_181
*338 FILLER_14_186
*339 FILLER_14_19
*340 FILLER_14_194
*341 FILLER_14_197
*342 FILLER_14_209
*343 FILLER_14_221
*344 FILLER_14_233
*345 FILLER_14_245
*346 FILLER_14_251
*347 FILLER_14_253
*348 FILLER_14_265
*349 FILLER_14_27
*350 FILLER_14_277
*351 FILLER_14_289
*352 FILLER_14_29
*353 FILLER_14_297
*354 FILLER_14_41
*355 FILLER_14_53
*356 FILLER_14_65
*357 FILLER_14_77
*358 FILLER_14_83
*359 FILLER_14_85
*360 FILLER_14_97
*361 FILLER_15_107
*362 FILLER_15_11
*363 FILLER_15_111
*364 FILLER_15_113
*365 FILLER_15_125
*366 FILLER_15_137
*367 FILLER_15_149
*368 FILLER_15_15
*369 FILLER_15_161
*370 FILLER_15_167
*371 FILLER_15_169
*372 FILLER_15_181
*373 FILLER_15_193
*374 FILLER_15_205
*375 FILLER_15_217
*376 FILLER_15_22
*377 FILLER_15_223
*378 FILLER_15_225
*379 FILLER_15_237
*380 FILLER_15_249
*381 FILLER_15_261
*382 FILLER_15_273
*383 FILLER_15_279
*384 FILLER_15_281
*385 FILLER_15_293
*386 FILLER_15_3
*387 FILLER_15_30
*388 FILLER_15_39
*389 FILLER_15_51
*390 FILLER_15_55
*391 FILLER_15_57
*392 FILLER_15_69
*393 FILLER_15_77
*394 FILLER_15_83
*395 FILLER_15_95
*396 FILLER_16_102
*397 FILLER_16_114
*398 FILLER_16_126
*399 FILLER_16_138
*400 FILLER_16_141
*401 FILLER_16_15
*402 FILLER_16_153
*403 FILLER_16_165
*404 FILLER_16_177
*405 FILLER_16_189
*406 FILLER_16_195
*407 FILLER_16_197
*408 FILLER_16_209
*409 FILLER_16_221
*410 FILLER_16_233
*411 FILLER_16_24
*412 FILLER_16_245
*413 FILLER_16_251
*414 FILLER_16_253
*415 FILLER_16_265
*416 FILLER_16_277
*417 FILLER_16_289
*418 FILLER_16_29
*419 FILLER_16_297
*420 FILLER_16_3
*421 FILLER_16_37
*422 FILLER_16_47
*423 FILLER_16_59
*424 FILLER_16_71
*425 FILLER_16_80
*426 FILLER_16_9
*427 FILLER_16_90
*428 FILLER_17_101
*429 FILLER_17_109
*430 FILLER_17_113
*431 FILLER_17_12
*432 FILLER_17_125
*433 FILLER_17_137
*434 FILLER_17_149
*435 FILLER_17_161
*436 FILLER_17_167
*437 FILLER_17_169
*438 FILLER_17_181
*439 FILLER_17_193
*440 FILLER_17_205
*441 FILLER_17_217
*442 FILLER_17_223
*443 FILLER_17_225
*444 FILLER_17_237
*445 FILLER_17_24
*446 FILLER_17_249
*447 FILLER_17_261
*448 FILLER_17_273
*449 FILLER_17_279
*450 FILLER_17_281
*451 FILLER_17_293
*452 FILLER_17_32
*453 FILLER_17_45
*454 FILLER_17_53
*455 FILLER_17_57
*456 FILLER_17_61
*457 FILLER_17_65
*458 FILLER_17_77
*459 FILLER_17_89
*460 FILLER_18_109
*461 FILLER_18_121
*462 FILLER_18_133
*463 FILLER_18_139
*464 FILLER_18_141
*465 FILLER_18_153
*466 FILLER_18_165
*467 FILLER_18_177
*468 FILLER_18_189
*469 FILLER_18_195
*470 FILLER_18_197
*471 FILLER_18_209
*472 FILLER_18_21
*473 FILLER_18_221
*474 FILLER_18_233
*475 FILLER_18_245
*476 FILLER_18_251
*477 FILLER_18_253
*478 FILLER_18_265
*479 FILLER_18_27
*480 FILLER_18_277
*481 FILLER_18_289
*482 FILLER_18_29
*483 FILLER_18_297
*484 FILLER_18_3
*485 FILLER_18_41
*486 FILLER_18_52
*487 FILLER_18_70
*488 FILLER_18_82
*489 FILLER_18_85
*490 FILLER_18_9
*491 FILLER_18_97
*492 FILLER_19_102
*493 FILLER_19_110
*494 FILLER_19_113
*495 FILLER_19_125
*496 FILLER_19_137
*497 FILLER_19_149
*498 FILLER_19_161
*499 FILLER_19_167
*500 FILLER_19_169
*501 FILLER_19_181
*502 FILLER_19_193
*503 FILLER_19_20
*504 FILLER_19_205
*505 FILLER_19_217
*506 FILLER_19_223
*507 FILLER_19_225
*508 FILLER_19_237
*509 FILLER_19_249
*510 FILLER_19_261
*511 FILLER_19_273
*512 FILLER_19_279
*513 FILLER_19_281
*514 FILLER_19_293
*515 FILLER_19_3
*516 FILLER_19_32
*517 FILLER_19_47
*518 FILLER_19_55
*519 FILLER_19_57
*520 FILLER_19_77
*521 FILLER_19_8
*522 FILLER_19_91
*523 FILLER_1_101
*524 FILLER_1_109
*525 FILLER_1_113
*526 FILLER_1_119
*527 FILLER_1_131
*528 FILLER_1_143
*529 FILLER_1_147
*530 FILLER_1_15
*531 FILLER_1_156
*532 FILLER_1_169
*533 FILLER_1_181
*534 FILLER_1_193
*535 FILLER_1_205
*536 FILLER_1_217
*537 FILLER_1_223
*538 FILLER_1_225
*539 FILLER_1_237
*540 FILLER_1_249
*541 FILLER_1_261
*542 FILLER_1_273
*543 FILLER_1_279
*544 FILLER_1_281
*545 FILLER_1_293
*546 FILLER_1_3
*547 FILLER_1_32
*548 FILLER_1_52
*549 FILLER_1_57
*550 FILLER_1_69
*551 FILLER_1_89
*552 FILLER_20_101
*553 FILLER_20_106
*554 FILLER_20_118
*555 FILLER_20_130
*556 FILLER_20_138
*557 FILLER_20_141
*558 FILLER_20_153
*559 FILLER_20_165
*560 FILLER_20_177
*561 FILLER_20_189
*562 FILLER_20_195
*563 FILLER_20_197
*564 FILLER_20_20
*565 FILLER_20_209
*566 FILLER_20_221
*567 FILLER_20_233
*568 FILLER_20_245
*569 FILLER_20_251
*570 FILLER_20_253
*571 FILLER_20_265
*572 FILLER_20_277
*573 FILLER_20_289
*574 FILLER_20_29
*575 FILLER_20_297
*576 FILLER_20_3
*577 FILLER_20_40
*578 FILLER_20_56
*579 FILLER_20_7
*580 FILLER_20_70
*581 FILLER_20_78
*582 FILLER_20_93
*583 FILLER_21_111
*584 FILLER_21_123
*585 FILLER_21_13
*586 FILLER_21_136
*587 FILLER_21_148
*588 FILLER_21_160
*589 FILLER_21_169
*590 FILLER_21_181
*591 FILLER_21_193
*592 FILLER_21_205
*593 FILLER_21_21
*594 FILLER_21_217
*595 FILLER_21_223
*596 FILLER_21_225
*597 FILLER_21_237
*598 FILLER_21_249
*599 FILLER_21_261
*600 FILLER_21_27
*601 FILLER_21_273
*602 FILLER_21_279
*603 FILLER_21_281
*604 FILLER_21_293
*605 FILLER_21_3
*606 FILLER_21_39
*607 FILLER_21_47
*608 FILLER_21_52
*609 FILLER_21_63
*610 FILLER_21_69
*611 FILLER_21_73
*612 FILLER_21_85
*613 FILLER_21_93
*614 FILLER_21_99
*615 FILLER_22_105
*616 FILLER_22_114
*617 FILLER_22_126
*618 FILLER_22_138
*619 FILLER_22_141
*620 FILLER_22_153
*621 FILLER_22_165
*622 FILLER_22_177
*623 FILLER_22_189
*624 FILLER_22_19
*625 FILLER_22_195
*626 FILLER_22_197
*627 FILLER_22_209
*628 FILLER_22_221
*629 FILLER_22_233
*630 FILLER_22_245
*631 FILLER_22_251
*632 FILLER_22_253
*633 FILLER_22_265
*634 FILLER_22_27
*635 FILLER_22_277
*636 FILLER_22_289
*637 FILLER_22_297
*638 FILLER_22_3
*639 FILLER_22_36
*640 FILLER_22_48
*641 FILLER_22_60
*642 FILLER_22_66
*643 FILLER_22_7
*644 FILLER_22_73
*645 FILLER_22_81
*646 FILLER_22_85
*647 FILLER_22_97
*648 FILLER_23_102
*649 FILLER_23_110
*650 FILLER_23_116
*651 FILLER_23_128
*652 FILLER_23_13
*653 FILLER_23_140
*654 FILLER_23_152
*655 FILLER_23_164
*656 FILLER_23_169
*657 FILLER_23_181
*658 FILLER_23_193
*659 FILLER_23_205
*660 FILLER_23_217
*661 FILLER_23_223
*662 FILLER_23_225
*663 FILLER_23_237
*664 FILLER_23_249
*665 FILLER_23_25
*666 FILLER_23_261
*667 FILLER_23_273
*668 FILLER_23_279
*669 FILLER_23_281
*670 FILLER_23_293
*671 FILLER_23_3
*672 FILLER_23_31
*673 FILLER_23_43
*674 FILLER_23_51
*675 FILLER_23_55
*676 FILLER_23_57
*677 FILLER_23_61
*678 FILLER_23_73
*679 FILLER_23_85
*680 FILLER_23_90
*681 FILLER_24_109
*682 FILLER_24_121
*683 FILLER_24_133
*684 FILLER_24_139
*685 FILLER_24_141
*686 FILLER_24_15
*687 FILLER_24_153
*688 FILLER_24_165
*689 FILLER_24_177
*690 FILLER_24_189
*691 FILLER_24_195
*692 FILLER_24_197
*693 FILLER_24_20
*694 FILLER_24_209
*695 FILLER_24_221
*696 FILLER_24_233
*697 FILLER_24_245
*698 FILLER_24_251
*699 FILLER_24_253
*700 FILLER_24_265
*701 FILLER_24_277
*702 FILLER_24_289
*703 FILLER_24_297
*704 FILLER_24_39
*705 FILLER_24_53
*706 FILLER_24_61
*707 FILLER_24_65
*708 FILLER_24_71
*709 FILLER_24_83
*710 FILLER_24_85
*711 FILLER_24_9
*712 FILLER_24_91
*713 FILLER_24_97
*714 FILLER_25_105
*715 FILLER_25_111
*716 FILLER_25_113
*717 FILLER_25_120
*718 FILLER_25_128
*719 FILLER_25_140
*720 FILLER_25_152
*721 FILLER_25_164
*722 FILLER_25_169
*723 FILLER_25_17
*724 FILLER_25_181
*725 FILLER_25_193
*726 FILLER_25_205
*727 FILLER_25_217
*728 FILLER_25_223
*729 FILLER_25_225
*730 FILLER_25_23
*731 FILLER_25_237
*732 FILLER_25_249
*733 FILLER_25_261
*734 FILLER_25_273
*735 FILLER_25_279
*736 FILLER_25_281
*737 FILLER_25_293
*738 FILLER_25_3
*739 FILLER_25_30
*740 FILLER_25_38
*741 FILLER_25_47
*742 FILLER_25_55
*743 FILLER_25_57
*744 FILLER_25_69
*745 FILLER_25_8
*746 FILLER_25_81
*747 FILLER_25_93
*748 FILLER_26_109
*749 FILLER_26_11
*750 FILLER_26_121
*751 FILLER_26_133
*752 FILLER_26_139
*753 FILLER_26_141
*754 FILLER_26_15
*755 FILLER_26_153
*756 FILLER_26_165
*757 FILLER_26_177
*758 FILLER_26_189
*759 FILLER_26_19
*760 FILLER_26_195
*761 FILLER_26_197
*762 FILLER_26_209
*763 FILLER_26_221
*764 FILLER_26_233
*765 FILLER_26_245
*766 FILLER_26_251
*767 FILLER_26_253
*768 FILLER_26_265
*769 FILLER_26_27
*770 FILLER_26_277
*771 FILLER_26_289
*772 FILLER_26_297
*773 FILLER_26_3
*774 FILLER_26_32
*775 FILLER_26_41
*776 FILLER_26_53
*777 FILLER_26_65
*778 FILLER_26_77
*779 FILLER_26_83
*780 FILLER_26_85
*781 FILLER_26_97
*782 FILLER_27_105
*783 FILLER_27_111
*784 FILLER_27_113
*785 FILLER_27_125
*786 FILLER_27_137
*787 FILLER_27_149
*788 FILLER_27_15
*789 FILLER_27_161
*790 FILLER_27_167
*791 FILLER_27_169
*792 FILLER_27_181
*793 FILLER_27_193
*794 FILLER_27_205
*795 FILLER_27_217
*796 FILLER_27_223
*797 FILLER_27_225
*798 FILLER_27_237
*799 FILLER_27_249
*800 FILLER_27_261
*801 FILLER_27_273
*802 FILLER_27_279
*803 FILLER_27_281
*804 FILLER_27_293
*805 FILLER_27_3
*806 FILLER_27_32
*807 FILLER_27_44
*808 FILLER_27_57
*809 FILLER_27_69
*810 FILLER_27_7
*811 FILLER_27_81
*812 FILLER_27_93
*813 FILLER_28_100
*814 FILLER_28_112
*815 FILLER_28_124
*816 FILLER_28_136
*817 FILLER_28_141
*818 FILLER_28_153
*819 FILLER_28_165
*820 FILLER_28_177
*821 FILLER_28_189
*822 FILLER_28_195
*823 FILLER_28_197
*824 FILLER_28_209
*825 FILLER_28_221
*826 FILLER_28_23
*827 FILLER_28_233
*828 FILLER_28_245
*829 FILLER_28_251
*830 FILLER_28_253
*831 FILLER_28_265
*832 FILLER_28_27
*833 FILLER_28_277
*834 FILLER_28_289
*835 FILLER_28_29
*836 FILLER_28_297
*837 FILLER_28_3
*838 FILLER_28_36
*839 FILLER_28_43
*840 FILLER_28_55
*841 FILLER_28_67
*842 FILLER_28_7
*843 FILLER_28_79
*844 FILLER_28_83
*845 FILLER_28_88
*846 FILLER_29_10
*847 FILLER_29_105
*848 FILLER_29_111
*849 FILLER_29_113
*850 FILLER_29_125
*851 FILLER_29_137
*852 FILLER_29_149
*853 FILLER_29_161
*854 FILLER_29_167
*855 FILLER_29_169
*856 FILLER_29_17
*857 FILLER_29_181
*858 FILLER_29_193
*859 FILLER_29_205
*860 FILLER_29_217
*861 FILLER_29_223
*862 FILLER_29_225
*863 FILLER_29_237
*864 FILLER_29_249
*865 FILLER_29_261
*866 FILLER_29_273
*867 FILLER_29_279
*868 FILLER_29_281
*869 FILLER_29_29
*870 FILLER_29_293
*871 FILLER_29_3
*872 FILLER_29_37
*873 FILLER_29_49
*874 FILLER_29_55
*875 FILLER_29_57
*876 FILLER_29_69
*877 FILLER_29_81
*878 FILLER_29_93
*879 FILLER_2_109
*880 FILLER_2_121
*881 FILLER_2_133
*882 FILLER_2_139
*883 FILLER_2_141
*884 FILLER_2_153
*885 FILLER_2_165
*886 FILLER_2_177
*887 FILLER_2_189
*888 FILLER_2_195
*889 FILLER_2_197
*890 FILLER_2_209
*891 FILLER_2_21
*892 FILLER_2_221
*893 FILLER_2_233
*894 FILLER_2_245
*895 FILLER_2_251
*896 FILLER_2_253
*897 FILLER_2_265
*898 FILLER_2_27
*899 FILLER_2_277
*900 FILLER_2_289
*901 FILLER_2_29
*902 FILLER_2_297
*903 FILLER_2_3
*904 FILLER_2_41
*905 FILLER_2_65
*906 FILLER_2_77
*907 FILLER_2_83
*908 FILLER_2_85
*909 FILLER_2_97
*910 FILLER_30_109
*911 FILLER_30_121
*912 FILLER_30_133
*913 FILLER_30_139
*914 FILLER_30_141
*915 FILLER_30_15
*916 FILLER_30_153
*917 FILLER_30_165
*918 FILLER_30_177
*919 FILLER_30_189
*920 FILLER_30_195
*921 FILLER_30_197
*922 FILLER_30_209
*923 FILLER_30_221
*924 FILLER_30_233
*925 FILLER_30_24
*926 FILLER_30_245
*927 FILLER_30_251
*928 FILLER_30_253
*929 FILLER_30_265
*930 FILLER_30_277
*931 FILLER_30_289
*932 FILLER_30_297
*933 FILLER_30_3
*934 FILLER_30_45
*935 FILLER_30_57
*936 FILLER_30_69
*937 FILLER_30_7
*938 FILLER_30_81
*939 FILLER_30_85
*940 FILLER_30_97
*941 FILLER_31_105
*942 FILLER_31_111
*943 FILLER_31_113
*944 FILLER_31_12
*945 FILLER_31_125
*946 FILLER_31_137
*947 FILLER_31_149
*948 FILLER_31_161
*949 FILLER_31_167
*950 FILLER_31_169
*951 FILLER_31_181
*952 FILLER_31_193
*953 FILLER_31_20
*954 FILLER_31_205
*955 FILLER_31_217
*956 FILLER_31_223
*957 FILLER_31_225
*958 FILLER_31_237
*959 FILLER_31_249
*960 FILLER_31_261
*961 FILLER_31_273
*962 FILLER_31_279
*963 FILLER_31_281
*964 FILLER_31_293
*965 FILLER_31_3
*966 FILLER_31_32
*967 FILLER_31_44
*968 FILLER_31_57
*969 FILLER_31_69
*970 FILLER_31_81
*971 FILLER_31_93
*972 FILLER_32_109
*973 FILLER_32_121
*974 FILLER_32_133
*975 FILLER_32_139
*976 FILLER_32_141
*977 FILLER_32_15
*978 FILLER_32_153
*979 FILLER_32_165
*980 FILLER_32_177
*981 FILLER_32_189
*982 FILLER_32_195
*983 FILLER_32_197
*984 FILLER_32_209
*985 FILLER_32_221
*986 FILLER_32_233
*987 FILLER_32_245
*988 FILLER_32_251
*989 FILLER_32_253
*990 FILLER_32_265
*991 FILLER_32_27
*992 FILLER_32_277
*993 FILLER_32_289
*994 FILLER_32_29
*995 FILLER_32_297
*996 FILLER_32_3
*997 FILLER_32_41
*998 FILLER_32_51
*999 FILLER_32_63
*1000 FILLER_32_75
*1001 FILLER_32_83
*1002 FILLER_32_85
*1003 FILLER_32_97
*1004 FILLER_33_105
*1005 FILLER_33_111
*1006 FILLER_33_113
*1007 FILLER_33_12
*1008 FILLER_33_125
*1009 FILLER_33_137
*1010 FILLER_33_149
*1011 FILLER_33_161
*1012 FILLER_33_167
*1013 FILLER_33_169
*1014 FILLER_33_18
*1015 FILLER_33_181
*1016 FILLER_33_193
*1017 FILLER_33_205
*1018 FILLER_33_217
*1019 FILLER_33_223
*1020 FILLER_33_225
*1021 FILLER_33_23
*1022 FILLER_33_237
*1023 FILLER_33_249
*1024 FILLER_33_261
*1025 FILLER_33_273
*1026 FILLER_33_279
*1027 FILLER_33_281
*1028 FILLER_33_293
*1029 FILLER_33_3
*1030 FILLER_33_35
*1031 FILLER_33_47
*1032 FILLER_33_55
*1033 FILLER_33_57
*1034 FILLER_33_69
*1035 FILLER_33_7
*1036 FILLER_33_81
*1037 FILLER_33_93
*1038 FILLER_34_109
*1039 FILLER_34_121
*1040 FILLER_34_133
*1041 FILLER_34_139
*1042 FILLER_34_141
*1043 FILLER_34_153
*1044 FILLER_34_165
*1045 FILLER_34_177
*1046 FILLER_34_189
*1047 FILLER_34_19
*1048 FILLER_34_195
*1049 FILLER_34_197
*1050 FILLER_34_209
*1051 FILLER_34_221
*1052 FILLER_34_233
*1053 FILLER_34_245
*1054 FILLER_34_251
*1055 FILLER_34_253
*1056 FILLER_34_265
*1057 FILLER_34_27
*1058 FILLER_34_277
*1059 FILLER_34_289
*1060 FILLER_34_297
*1061 FILLER_34_3
*1062 FILLER_34_38
*1063 FILLER_34_50
*1064 FILLER_34_62
*1065 FILLER_34_7
*1066 FILLER_34_74
*1067 FILLER_34_82
*1068 FILLER_34_85
*1069 FILLER_34_97
*1070 FILLER_35_105
*1071 FILLER_35_11
*1072 FILLER_35_111
*1073 FILLER_35_113
*1074 FILLER_35_125
*1075 FILLER_35_137
*1076 FILLER_35_149
*1077 FILLER_35_161
*1078 FILLER_35_167
*1079 FILLER_35_169
*1080 FILLER_35_181
*1081 FILLER_35_193
*1082 FILLER_35_205
*1083 FILLER_35_21
*1084 FILLER_35_217
*1085 FILLER_35_223
*1086 FILLER_35_225
*1087 FILLER_35_237
*1088 FILLER_35_249
*1089 FILLER_35_261
*1090 FILLER_35_273
*1091 FILLER_35_279
*1092 FILLER_35_281
*1093 FILLER_35_293
*1094 FILLER_35_3
*1095 FILLER_35_33
*1096 FILLER_35_45
*1097 FILLER_35_53
*1098 FILLER_35_57
*1099 FILLER_35_69
*1100 FILLER_35_81
*1101 FILLER_35_93
*1102 FILLER_36_109
*1103 FILLER_36_121
*1104 FILLER_36_133
*1105 FILLER_36_139
*1106 FILLER_36_141
*1107 FILLER_36_153
*1108 FILLER_36_165
*1109 FILLER_36_177
*1110 FILLER_36_189
*1111 FILLER_36_195
*1112 FILLER_36_197
*1113 FILLER_36_209
*1114 FILLER_36_21
*1115 FILLER_36_221
*1116 FILLER_36_233
*1117 FILLER_36_245
*1118 FILLER_36_251
*1119 FILLER_36_253
*1120 FILLER_36_265
*1121 FILLER_36_27
*1122 FILLER_36_277
*1123 FILLER_36_289
*1124 FILLER_36_29
*1125 FILLER_36_297
*1126 FILLER_36_3
*1127 FILLER_36_41
*1128 FILLER_36_53
*1129 FILLER_36_65
*1130 FILLER_36_7
*1131 FILLER_36_77
*1132 FILLER_36_83
*1133 FILLER_36_85
*1134 FILLER_36_97
*1135 FILLER_37_105
*1136 FILLER_37_111
*1137 FILLER_37_113
*1138 FILLER_37_125
*1139 FILLER_37_137
*1140 FILLER_37_149
*1141 FILLER_37_161
*1142 FILLER_37_167
*1143 FILLER_37_169
*1144 FILLER_37_181
*1145 FILLER_37_193
*1146 FILLER_37_205
*1147 FILLER_37_217
*1148 FILLER_37_22
*1149 FILLER_37_223
*1150 FILLER_37_225
*1151 FILLER_37_237
*1152 FILLER_37_249
*1153 FILLER_37_261
*1154 FILLER_37_273
*1155 FILLER_37_279
*1156 FILLER_37_281
*1157 FILLER_37_293
*1158 FILLER_37_3
*1159 FILLER_37_34
*1160 FILLER_37_46
*1161 FILLER_37_54
*1162 FILLER_37_57
*1163 FILLER_37_69
*1164 FILLER_37_81
*1165 FILLER_37_93
*1166 FILLER_38_109
*1167 FILLER_38_12
*1168 FILLER_38_121
*1169 FILLER_38_133
*1170 FILLER_38_139
*1171 FILLER_38_141
*1172 FILLER_38_153
*1173 FILLER_38_165
*1174 FILLER_38_177
*1175 FILLER_38_189
*1176 FILLER_38_195
*1177 FILLER_38_197
*1178 FILLER_38_209
*1179 FILLER_38_221
*1180 FILLER_38_233
*1181 FILLER_38_24
*1182 FILLER_38_245
*1183 FILLER_38_251
*1184 FILLER_38_253
*1185 FILLER_38_265
*1186 FILLER_38_277
*1187 FILLER_38_289
*1188 FILLER_38_29
*1189 FILLER_38_297
*1190 FILLER_38_3
*1191 FILLER_38_41
*1192 FILLER_38_53
*1193 FILLER_38_65
*1194 FILLER_38_77
*1195 FILLER_38_83
*1196 FILLER_38_85
*1197 FILLER_38_97
*1198 FILLER_39_105
*1199 FILLER_39_111
*1200 FILLER_39_113
*1201 FILLER_39_125
*1202 FILLER_39_137
*1203 FILLER_39_149
*1204 FILLER_39_15
*1205 FILLER_39_161
*1206 FILLER_39_167
*1207 FILLER_39_169
*1208 FILLER_39_181
*1209 FILLER_39_193
*1210 FILLER_39_205
*1211 FILLER_39_217
*1212 FILLER_39_223
*1213 FILLER_39_225
*1214 FILLER_39_237
*1215 FILLER_39_249
*1216 FILLER_39_261
*1217 FILLER_39_27
*1218 FILLER_39_273
*1219 FILLER_39_279
*1220 FILLER_39_281
*1221 FILLER_39_293
*1222 FILLER_39_3
*1223 FILLER_39_39
*1224 FILLER_39_51
*1225 FILLER_39_55
*1226 FILLER_39_57
*1227 FILLER_39_69
*1228 FILLER_39_81
*1229 FILLER_39_93
*1230 FILLER_3_105
*1231 FILLER_3_111
*1232 FILLER_3_113
*1233 FILLER_3_125
*1234 FILLER_3_137
*1235 FILLER_3_149
*1236 FILLER_3_161
*1237 FILLER_3_167
*1238 FILLER_3_169
*1239 FILLER_3_181
*1240 FILLER_3_193
*1241 FILLER_3_199
*1242 FILLER_3_211
*1243 FILLER_3_223
*1244 FILLER_3_225
*1245 FILLER_3_237
*1246 FILLER_3_249
*1247 FILLER_3_261
*1248 FILLER_3_27
*1249 FILLER_3_273
*1250 FILLER_3_279
*1251 FILLER_3_281
*1252 FILLER_3_293
*1253 FILLER_3_3
*1254 FILLER_3_35
*1255 FILLER_3_52
*1256 FILLER_3_57
*1257 FILLER_3_81
*1258 FILLER_3_93
*1259 FILLER_40_109
*1260 FILLER_40_121
*1261 FILLER_40_133
*1262 FILLER_40_139
*1263 FILLER_40_141
*1264 FILLER_40_15
*1265 FILLER_40_153
*1266 FILLER_40_165
*1267 FILLER_40_177
*1268 FILLER_40_189
*1269 FILLER_40_195
*1270 FILLER_40_197
*1271 FILLER_40_209
*1272 FILLER_40_221
*1273 FILLER_40_233
*1274 FILLER_40_245
*1275 FILLER_40_251
*1276 FILLER_40_253
*1277 FILLER_40_265
*1278 FILLER_40_27
*1279 FILLER_40_277
*1280 FILLER_40_289
*1281 FILLER_40_29
*1282 FILLER_40_297
*1283 FILLER_40_3
*1284 FILLER_40_41
*1285 FILLER_40_53
*1286 FILLER_40_65
*1287 FILLER_40_77
*1288 FILLER_40_83
*1289 FILLER_40_85
*1290 FILLER_40_97
*1291 FILLER_41_105
*1292 FILLER_41_111
*1293 FILLER_41_113
*1294 FILLER_41_125
*1295 FILLER_41_137
*1296 FILLER_41_149
*1297 FILLER_41_15
*1298 FILLER_41_161
*1299 FILLER_41_167
*1300 FILLER_41_169
*1301 FILLER_41_181
*1302 FILLER_41_193
*1303 FILLER_41_205
*1304 FILLER_41_217
*1305 FILLER_41_223
*1306 FILLER_41_225
*1307 FILLER_41_237
*1308 FILLER_41_249
*1309 FILLER_41_261
*1310 FILLER_41_27
*1311 FILLER_41_273
*1312 FILLER_41_279
*1313 FILLER_41_281
*1314 FILLER_41_293
*1315 FILLER_41_3
*1316 FILLER_41_39
*1317 FILLER_41_51
*1318 FILLER_41_55
*1319 FILLER_41_57
*1320 FILLER_41_69
*1321 FILLER_41_81
*1322 FILLER_41_93
*1323 FILLER_42_109
*1324 FILLER_42_121
*1325 FILLER_42_133
*1326 FILLER_42_139
*1327 FILLER_42_141
*1328 FILLER_42_15
*1329 FILLER_42_153
*1330 FILLER_42_165
*1331 FILLER_42_177
*1332 FILLER_42_189
*1333 FILLER_42_195
*1334 FILLER_42_197
*1335 FILLER_42_209
*1336 FILLER_42_221
*1337 FILLER_42_233
*1338 FILLER_42_245
*1339 FILLER_42_251
*1340 FILLER_42_253
*1341 FILLER_42_265
*1342 FILLER_42_27
*1343 FILLER_42_277
*1344 FILLER_42_289
*1345 FILLER_42_29
*1346 FILLER_42_297
*1347 FILLER_42_3
*1348 FILLER_42_41
*1349 FILLER_42_53
*1350 FILLER_42_65
*1351 FILLER_42_77
*1352 FILLER_42_83
*1353 FILLER_42_85
*1354 FILLER_42_97
*1355 FILLER_43_105
*1356 FILLER_43_111
*1357 FILLER_43_113
*1358 FILLER_43_125
*1359 FILLER_43_137
*1360 FILLER_43_149
*1361 FILLER_43_16
*1362 FILLER_43_161
*1363 FILLER_43_167
*1364 FILLER_43_169
*1365 FILLER_43_181
*1366 FILLER_43_193
*1367 FILLER_43_205
*1368 FILLER_43_217
*1369 FILLER_43_223
*1370 FILLER_43_225
*1371 FILLER_43_237
*1372 FILLER_43_249
*1373 FILLER_43_261
*1374 FILLER_43_273
*1375 FILLER_43_279
*1376 FILLER_43_28
*1377 FILLER_43_281
*1378 FILLER_43_293
*1379 FILLER_43_3
*1380 FILLER_43_40
*1381 FILLER_43_52
*1382 FILLER_43_57
*1383 FILLER_43_69
*1384 FILLER_43_81
*1385 FILLER_43_93
*1386 FILLER_44_109
*1387 FILLER_44_121
*1388 FILLER_44_133
*1389 FILLER_44_139
*1390 FILLER_44_141
*1391 FILLER_44_15
*1392 FILLER_44_153
*1393 FILLER_44_165
*1394 FILLER_44_177
*1395 FILLER_44_189
*1396 FILLER_44_195
*1397 FILLER_44_197
*1398 FILLER_44_209
*1399 FILLER_44_221
*1400 FILLER_44_233
*1401 FILLER_44_245
*1402 FILLER_44_251
*1403 FILLER_44_253
*1404 FILLER_44_265
*1405 FILLER_44_27
*1406 FILLER_44_277
*1407 FILLER_44_289
*1408 FILLER_44_29
*1409 FILLER_44_297
*1410 FILLER_44_3
*1411 FILLER_44_41
*1412 FILLER_44_53
*1413 FILLER_44_65
*1414 FILLER_44_77
*1415 FILLER_44_83
*1416 FILLER_44_85
*1417 FILLER_44_97
*1418 FILLER_45_105
*1419 FILLER_45_111
*1420 FILLER_45_113
*1421 FILLER_45_125
*1422 FILLER_45_137
*1423 FILLER_45_149
*1424 FILLER_45_15
*1425 FILLER_45_161
*1426 FILLER_45_167
*1427 FILLER_45_169
*1428 FILLER_45_181
*1429 FILLER_45_193
*1430 FILLER_45_205
*1431 FILLER_45_217
*1432 FILLER_45_223
*1433 FILLER_45_225
*1434 FILLER_45_237
*1435 FILLER_45_249
*1436 FILLER_45_261
*1437 FILLER_45_27
*1438 FILLER_45_273
*1439 FILLER_45_279
*1440 FILLER_45_281
*1441 FILLER_45_293
*1442 FILLER_45_3
*1443 FILLER_45_39
*1444 FILLER_45_51
*1445 FILLER_45_55
*1446 FILLER_45_57
*1447 FILLER_45_69
*1448 FILLER_45_81
*1449 FILLER_45_93
*1450 FILLER_46_109
*1451 FILLER_46_11
*1452 FILLER_46_121
*1453 FILLER_46_133
*1454 FILLER_46_139
*1455 FILLER_46_141
*1456 FILLER_46_153
*1457 FILLER_46_165
*1458 FILLER_46_177
*1459 FILLER_46_18
*1460 FILLER_46_189
*1461 FILLER_46_195
*1462 FILLER_46_197
*1463 FILLER_46_209
*1464 FILLER_46_221
*1465 FILLER_46_233
*1466 FILLER_46_245
*1467 FILLER_46_251
*1468 FILLER_46_253
*1469 FILLER_46_26
*1470 FILLER_46_265
*1471 FILLER_46_277
*1472 FILLER_46_289
*1473 FILLER_46_29
*1474 FILLER_46_297
*1475 FILLER_46_3
*1476 FILLER_46_41
*1477 FILLER_46_53
*1478 FILLER_46_65
*1479 FILLER_46_77
*1480 FILLER_46_83
*1481 FILLER_46_85
*1482 FILLER_46_97
*1483 FILLER_47_105
*1484 FILLER_47_111
*1485 FILLER_47_113
*1486 FILLER_47_125
*1487 FILLER_47_137
*1488 FILLER_47_149
*1489 FILLER_47_15
*1490 FILLER_47_161
*1491 FILLER_47_167
*1492 FILLER_47_169
*1493 FILLER_47_181
*1494 FILLER_47_193
*1495 FILLER_47_205
*1496 FILLER_47_217
*1497 FILLER_47_223
*1498 FILLER_47_225
*1499 FILLER_47_237
*1500 FILLER_47_249
*1501 FILLER_47_261
*1502 FILLER_47_27
*1503 FILLER_47_273
*1504 FILLER_47_279
*1505 FILLER_47_281
*1506 FILLER_47_293
*1507 FILLER_47_3
*1508 FILLER_47_39
*1509 FILLER_47_51
*1510 FILLER_47_55
*1511 FILLER_47_57
*1512 FILLER_47_69
*1513 FILLER_47_81
*1514 FILLER_47_93
*1515 FILLER_48_109
*1516 FILLER_48_121
*1517 FILLER_48_133
*1518 FILLER_48_139
*1519 FILLER_48_141
*1520 FILLER_48_15
*1521 FILLER_48_153
*1522 FILLER_48_165
*1523 FILLER_48_177
*1524 FILLER_48_189
*1525 FILLER_48_195
*1526 FILLER_48_197
*1527 FILLER_48_209
*1528 FILLER_48_221
*1529 FILLER_48_233
*1530 FILLER_48_245
*1531 FILLER_48_251
*1532 FILLER_48_253
*1533 FILLER_48_265
*1534 FILLER_48_27
*1535 FILLER_48_277
*1536 FILLER_48_289
*1537 FILLER_48_29
*1538 FILLER_48_297
*1539 FILLER_48_3
*1540 FILLER_48_41
*1541 FILLER_48_53
*1542 FILLER_48_65
*1543 FILLER_48_77
*1544 FILLER_48_83
*1545 FILLER_48_85
*1546 FILLER_48_97
*1547 FILLER_49_105
*1548 FILLER_49_111
*1549 FILLER_49_113
*1550 FILLER_49_125
*1551 FILLER_49_137
*1552 FILLER_49_149
*1553 FILLER_49_15
*1554 FILLER_49_161
*1555 FILLER_49_167
*1556 FILLER_49_169
*1557 FILLER_49_181
*1558 FILLER_49_193
*1559 FILLER_49_205
*1560 FILLER_49_217
*1561 FILLER_49_223
*1562 FILLER_49_225
*1563 FILLER_49_237
*1564 FILLER_49_249
*1565 FILLER_49_261
*1566 FILLER_49_27
*1567 FILLER_49_273
*1568 FILLER_49_279
*1569 FILLER_49_281
*1570 FILLER_49_293
*1571 FILLER_49_3
*1572 FILLER_49_39
*1573 FILLER_49_51
*1574 FILLER_49_55
*1575 FILLER_49_57
*1576 FILLER_49_69
*1577 FILLER_49_81
*1578 FILLER_49_93
*1579 FILLER_4_109
*1580 FILLER_4_121
*1581 FILLER_4_133
*1582 FILLER_4_139
*1583 FILLER_4_146
*1584 FILLER_4_158
*1585 FILLER_4_170
*1586 FILLER_4_182
*1587 FILLER_4_187
*1588 FILLER_4_19
*1589 FILLER_4_195
*1590 FILLER_4_197
*1591 FILLER_4_209
*1592 FILLER_4_221
*1593 FILLER_4_233
*1594 FILLER_4_245
*1595 FILLER_4_251
*1596 FILLER_4_253
*1597 FILLER_4_265
*1598 FILLER_4_27
*1599 FILLER_4_277
*1600 FILLER_4_289
*1601 FILLER_4_29
*1602 FILLER_4_297
*1603 FILLER_4_53
*1604 FILLER_4_73
*1605 FILLER_4_81
*1606 FILLER_4_85
*1607 FILLER_4_97
*1608 FILLER_50_109
*1609 FILLER_50_121
*1610 FILLER_50_133
*1611 FILLER_50_139
*1612 FILLER_50_141
*1613 FILLER_50_15
*1614 FILLER_50_153
*1615 FILLER_50_165
*1616 FILLER_50_177
*1617 FILLER_50_189
*1618 FILLER_50_195
*1619 FILLER_50_197
*1620 FILLER_50_209
*1621 FILLER_50_221
*1622 FILLER_50_233
*1623 FILLER_50_245
*1624 FILLER_50_251