*SPEF "ieee 1481-1999"
*DESIGN "recepsaid_euclidean_algorithm"
*DATE "11:11:11 Fri 11 11, 1111"
*VENDOR "OpenRCX"
*PROGRAM "Parallel Extraction"
*VERSION "1.0"
*DESIGN_FLOW "NAME_SCOPE LOCAL" "PIN_CAP NONE"
*DIVIDER /
*DELIMITER :
*BUS_DELIMITER []
*T_UNIT 1 NS
*C_UNIT 1 PF
*R_UNIT 1 OHM
*L_UNIT 1 HENRY

*NAME_MAP
*1 io_in[0]
*2 io_in[1]
*3 io_in[2]
*4 io_in[3]
*5 io_in[4]
*6 io_in[5]
*7 io_in[6]
*8 io_in[7]
*9 io_out[0]
*10 io_out[1]
*11 io_out[2]
*12 io_out[3]
*13 io_out[4]
*14 io_out[5]
*15 io_out[6]
*16 net7
*19 _000_
*20 _001_
*21 _002_
*22 _003_
*23 _004_
*24 _005_
*25 _006_
*26 _007_
*27 _008_
*28 _009_
*29 _010_
*30 _011_
*31 _012_
*32 _013_
*33 _014_
*34 _015_
*35 _016_
*36 _017_
*37 _018_
*38 _019_
*39 _020_
*40 _021_
*41 _022_
*42 _023_
*43 _024_
*44 _025_
*45 _026_
*46 _027_
*47 _028_
*48 _029_
*49 _030_
*50 _031_
*51 _032_
*52 _033_
*53 _034_
*54 _035_
*55 _036_
*56 _037_
*57 _038_
*58 _039_
*59 _040_
*60 _041_
*61 _042_
*62 _043_
*63 _044_
*64 _045_
*65 _046_
*66 _047_
*67 _048_
*68 _049_
*69 _050_
*70 _051_
*71 _052_
*72 _053_
*73 _054_
*74 _055_
*75 _056_
*76 _057_
*77 _058_
*78 _059_
*79 _060_
*80 _061_
*81 _062_
*82 _063_
*83 _064_
*84 _065_
*85 _066_
*86 _067_
*87 _068_
*88 _069_
*89 _070_
*90 _071_
*91 _072_
*92 _073_
*93 _074_
*94 _075_
*95 _076_
*96 _077_
*97 _078_
*98 _079_
*99 _080_
*100 _081_
*101 _082_
*102 _083_
*103 _084_
*104 _085_
*105 _086_
*106 _087_
*107 _088_
*108 _089_
*109 _090_
*110 _091_
*111 _092_
*112 _093_
*113 _094_
*114 _095_
*115 _096_
*116 _097_
*117 _098_
*118 _099_
*119 _100_
*120 _101_
*121 _102_
*122 _103_
*123 _104_
*124 _105_
*125 _106_
*126 _107_
*127 _108_
*128 _109_
*129 _110_
*130 _111_
*131 _112_
*132 _113_
*133 _114_
*134 _115_
*135 _116_
*136 _117_
*137 _118_
*138 _119_
*139 _120_
*140 _121_
*141 _122_
*142 _123_
*143 _124_
*144 _125_
*145 _126_
*146 _127_
*147 _128_
*148 _129_
*149 _130_
*150 _131_
*151 _132_
*152 _133_
*153 _134_
*154 _135_
*155 _136_
*156 _137_
*157 _138_
*158 _139_
*159 _140_
*160 _141_
*161 clknet_0_io_in[0]
*162 clknet_2_0__leaf_io_in[0]
*163 clknet_2_1__leaf_io_in[0]
*164 clknet_2_2__leaf_io_in[0]
*165 clknet_2_3__leaf_io_in[0]
*166 decoder\.ssd_i\[0\]
*167 decoder\.ssd_i\[1\]
*168 decoder\.ssd_i\[2\]
*169 decoder\.ssd_i\[3\]
*170 gcdtop\.control\.enobeb_o
*171 gcdtop\.control\.okey_i
*172 gcdtop\.control\.present_state\[0\]
*173 gcdtop\.control\.present_state\[2\]
*174 gcdtop\.control\.present_state\[3\]
*175 gcdtop\.control\.ssub_o
*176 gcdtop\.control\.sx_o
*177 gcdtop\.data\.x_i\[0\]
*178 gcdtop\.data\.x_i\[1\]
*179 gcdtop\.data\.x_i\[2\]
*180 gcdtop\.data\.x_i\[3\]
*181 gcdtop\.data\.xi\[0\]
*182 gcdtop\.data\.xi\[1\]
*183 gcdtop\.data\.xi\[2\]
*184 gcdtop\.data\.xi\[3\]
*185 gcdtop\.data\.y_i\[0\]
*186 gcdtop\.data\.y_i\[1\]
*187 gcdtop\.data\.y_i\[2\]
*188 gcdtop\.data\.y_i\[3\]
*189 gcdtop\.data\.yi\[0\]
*190 gcdtop\.data\.yi\[1\]
*191 gcdtop\.data\.yi\[2\]
*192 gcdtop\.data\.yi\[3\]
*193 net1
*194 net2
*195 net3
*196 net4
*197 net5
*198 net6
*199 state\[0\]
*200 state\[1\]
*201 state\[2\]
*202 ANTENNA_0
*203 ANTENNA_1
*204 ANTENNA_2
*205 ANTENNA_3
*206 ANTENNA_4
*207 ANTENNA_5
*208 ANTENNA_6
*209 ANTENNA_7
*210 FILLER_0_109
*211 FILLER_0_113
*212 FILLER_0_125
*213 FILLER_0_137
*214 FILLER_0_141
*215 FILLER_0_153
*216 FILLER_0_165
*217 FILLER_0_169
*218 FILLER_0_181
*219 FILLER_0_193
*220 FILLER_0_197
*221 FILLER_0_20
*222 FILLER_0_209
*223 FILLER_0_221
*224 FILLER_0_225
*225 FILLER_0_237
*226 FILLER_0_249
*227 FILLER_0_253
*228 FILLER_0_265
*229 FILLER_0_277
*230 FILLER_0_281
*231 FILLER_0_29
*232 FILLER_0_293
*233 FILLER_0_33
*234 FILLER_0_50
*235 FILLER_0_54
*236 FILLER_0_73
*237 FILLER_0_81
*238 FILLER_0_85
*239 FILLER_0_97
*240 FILLER_10_112
*241 FILLER_10_124
*242 FILLER_10_136
*243 FILLER_10_141
*244 FILLER_10_153
*245 FILLER_10_165
*246 FILLER_10_177
*247 FILLER_10_189
*248 FILLER_10_19
*249 FILLER_10_195
*250 FILLER_10_197
*251 FILLER_10_209
*252 FILLER_10_221
*253 FILLER_10_233
*254 FILLER_10_245
*255 FILLER_10_251
*256 FILLER_10_253
*257 FILLER_10_265
*258 FILLER_10_27
*259 FILLER_10_277
*260 FILLER_10_289
*261 FILLER_10_29
*262 FILLER_10_297
*263 FILLER_10_41
*264 FILLER_10_62
*265 FILLER_10_74
*266 FILLER_10_82
*267 FILLER_10_85
*268 FILLER_10_97
*269 FILLER_11_110
*270 FILLER_11_113
*271 FILLER_11_125
*272 FILLER_11_137
*273 FILLER_11_149
*274 FILLER_11_161
*275 FILLER_11_167
*276 FILLER_11_169
*277 FILLER_11_181
*278 FILLER_11_196
*279 FILLER_11_208
*280 FILLER_11_21
*281 FILLER_11_220
*282 FILLER_11_225
*283 FILLER_11_237
*284 FILLER_11_249
*285 FILLER_11_261
*286 FILLER_11_273
*287 FILLER_11_279
*288 FILLER_11_281
*289 FILLER_11_293
*290 FILLER_11_3
*291 FILLER_11_49
*292 FILLER_11_55
*293 FILLER_11_74
*294 FILLER_11_86
*295 FILLER_11_98
*296 FILLER_12_102
*297 FILLER_12_114
*298 FILLER_12_126
*299 FILLER_12_138
*300 FILLER_12_146
*301 FILLER_12_158
*302 FILLER_12_170
*303 FILLER_12_182
*304 FILLER_12_19
*305 FILLER_12_194
*306 FILLER_12_197
*307 FILLER_12_209
*308 FILLER_12_221
*309 FILLER_12_233
*310 FILLER_12_245
*311 FILLER_12_251
*312 FILLER_12_253
*313 FILLER_12_265
*314 FILLER_12_27
*315 FILLER_12_273
*316 FILLER_12_283
*317 FILLER_12_29
*318 FILLER_12_295
*319 FILLER_12_41
*320 FILLER_12_65
*321 FILLER_12_77
*322 FILLER_12_83
*323 FILLER_12_85
*324 FILLER_12_93
*325 FILLER_13_110
*326 FILLER_13_113
*327 FILLER_13_125
*328 FILLER_13_137
*329 FILLER_13_149
*330 FILLER_13_15
*331 FILLER_13_153
*332 FILLER_13_157
*333 FILLER_13_165
*334 FILLER_13_169
*335 FILLER_13_181
*336 FILLER_13_193
*337 FILLER_13_205
*338 FILLER_13_217
*339 FILLER_13_223
*340 FILLER_13_225
*341 FILLER_13_237
*342 FILLER_13_249
*343 FILLER_13_257
*344 FILLER_13_263
*345 FILLER_13_275
*346 FILLER_13_279
*347 FILLER_13_281
*348 FILLER_13_293
*349 FILLER_13_3
*350 FILLER_13_33
*351 FILLER_13_45
*352 FILLER_13_51
*353 FILLER_13_55
*354 FILLER_13_74
*355 FILLER_13_86
*356 FILLER_13_98
*357 FILLER_14_104
*358 FILLER_14_116
*359 FILLER_14_131
*360 FILLER_14_139
*361 FILLER_14_141
*362 FILLER_14_164
*363 FILLER_14_176
*364 FILLER_14_188
*365 FILLER_14_197
*366 FILLER_14_20
*367 FILLER_14_209
*368 FILLER_14_221
*369 FILLER_14_233
*370 FILLER_14_245
*371 FILLER_14_251
*372 FILLER_14_253
*373 FILLER_14_265
*374 FILLER_14_277
*375 FILLER_14_289
*376 FILLER_14_29
*377 FILLER_14_297
*378 FILLER_14_58
*379 FILLER_14_78
*380 FILLER_14_92
*381 FILLER_15_105
*382 FILLER_15_111
*383 FILLER_15_113
*384 FILLER_15_125
*385 FILLER_15_13
*386 FILLER_15_137
*387 FILLER_15_145
*388 FILLER_15_151
*389 FILLER_15_163
*390 FILLER_15_167
*391 FILLER_15_169
*392 FILLER_15_181
*393 FILLER_15_193
*394 FILLER_15_205
*395 FILLER_15_217
*396 FILLER_15_223
*397 FILLER_15_225
*398 FILLER_15_237
*399 FILLER_15_249
*400 FILLER_15_261
*401 FILLER_15_273
*402 FILLER_15_279
*403 FILLER_15_281
*404 FILLER_15_293
*405 FILLER_15_38
*406 FILLER_15_50
*407 FILLER_15_57
*408 FILLER_15_69
*409 FILLER_15_81
*410 FILLER_15_93
*411 FILLER_16_105
*412 FILLER_16_117
*413 FILLER_16_129
*414 FILLER_16_137
*415 FILLER_16_141
*416 FILLER_16_175
*417 FILLER_16_185
*418 FILLER_16_193
*419 FILLER_16_197
*420 FILLER_16_20
*421 FILLER_16_209
*422 FILLER_16_215
*423 FILLER_16_227
*424 FILLER_16_239
*425 FILLER_16_251
*426 FILLER_16_253
*427 FILLER_16_265
*428 FILLER_16_277
*429 FILLER_16_289
*430 FILLER_16_297
*431 FILLER_16_33
*432 FILLER_16_45
*433 FILLER_16_57
*434 FILLER_16_69
*435 FILLER_16_77
*436 FILLER_16_83
*437 FILLER_16_93
*438 FILLER_17_105
*439 FILLER_17_111
*440 FILLER_17_113
*441 FILLER_17_125
*442 FILLER_17_137
*443 FILLER_17_149
*444 FILLER_17_161
*445 FILLER_17_167
*446 FILLER_17_169
*447 FILLER_17_181
*448 FILLER_17_193
*449 FILLER_17_205
*450 FILLER_17_217
*451 FILLER_17_223
*452 FILLER_17_225
*453 FILLER_17_237
*454 FILLER_17_249
*455 FILLER_17_261
*456 FILLER_17_27
*457 FILLER_17_273
*458 FILLER_17_279
*459 FILLER_17_281
*460 FILLER_17_293
*461 FILLER_17_3
*462 FILLER_17_35
*463 FILLER_17_52
*464 FILLER_17_57
*465 FILLER_17_69
*466 FILLER_17_81
*467 FILLER_17_93
*468 FILLER_18_105
*469 FILLER_18_11
*470 FILLER_18_117
*471 FILLER_18_129
*472 FILLER_18_137
*473 FILLER_18_141
*474 FILLER_18_156
*475 FILLER_18_168
*476 FILLER_18_180
*477 FILLER_18_192
*478 FILLER_18_197
*479 FILLER_18_209
*480 FILLER_18_221
*481 FILLER_18_23
*482 FILLER_18_233
*483 FILLER_18_245
*484 FILLER_18_251
*485 FILLER_18_253
*486 FILLER_18_265
*487 FILLER_18_27
*488 FILLER_18_277
*489 FILLER_18_289
*490 FILLER_18_29
*491 FILLER_18_297
*492 FILLER_18_3
*493 FILLER_18_41
*494 FILLER_18_53
*495 FILLER_18_65
*496 FILLER_18_77
*497 FILLER_18_83
*498 FILLER_18_85
*499 FILLER_18_93
*500 FILLER_19_105
*501 FILLER_19_111
*502 FILLER_19_113
*503 FILLER_19_125
*504 FILLER_19_137
*505 FILLER_19_149
*506 FILLER_19_15
*507 FILLER_19_161
*508 FILLER_19_167
*509 FILLER_19_169
*510 FILLER_19_181
*511 FILLER_19_193
*512 FILLER_19_205
*513 FILLER_19_220
*514 FILLER_19_225
*515 FILLER_19_237
*516 FILLER_19_249
*517 FILLER_19_261
*518 FILLER_19_27
*519 FILLER_19_273
*520 FILLER_19_279
*521 FILLER_19_281
*522 FILLER_19_293
*523 FILLER_19_3
*524 FILLER_19_39
*525 FILLER_19_51
*526 FILLER_19_55
*527 FILLER_19_57
*528 FILLER_19_69
*529 FILLER_19_81
*530 FILLER_19_93
*531 FILLER_1_108
*532 FILLER_1_113
*533 FILLER_1_121
*534 FILLER_1_127
*535 FILLER_1_139
*536 FILLER_1_15
*537 FILLER_1_151
*538 FILLER_1_157
*539 FILLER_1_162
*540 FILLER_1_169
*541 FILLER_1_178
*542 FILLER_1_184
*543 FILLER_1_194
*544 FILLER_1_206
*545 FILLER_1_213
*546 FILLER_1_220
*547 FILLER_1_234
*548 FILLER_1_238
*549 FILLER_1_247
*550 FILLER_1_259
*551 FILLER_1_271
*552 FILLER_1_279
*553 FILLER_1_281
*554 FILLER_1_293
*555 FILLER_1_3
*556 FILLER_1_34
*557 FILLER_1_46
*558 FILLER_1_54
*559 FILLER_1_57
*560 FILLER_1_76
*561 FILLER_1_84
*562 FILLER_1_96
*563 FILLER_20_107
*564 FILLER_20_119
*565 FILLER_20_131
*566 FILLER_20_139
*567 FILLER_20_141
*568 FILLER_20_147
*569 FILLER_20_15
*570 FILLER_20_159
*571 FILLER_20_174
*572 FILLER_20_186
*573 FILLER_20_194
*574 FILLER_20_197
*575 FILLER_20_209
*576 FILLER_20_221
*577 FILLER_20_233
*578 FILLER_20_245
*579 FILLER_20_251
*580 FILLER_20_253
*581 FILLER_20_265
*582 FILLER_20_27
*583 FILLER_20_277
*584 FILLER_20_289
*585 FILLER_20_29
*586 FILLER_20_297
*587 FILLER_20_3
*588 FILLER_20_41
*589 FILLER_20_53
*590 FILLER_20_65
*591 FILLER_20_77
*592 FILLER_20_83
*593 FILLER_20_85
*594 FILLER_20_97
*595 FILLER_21_105
*596 FILLER_21_11
*597 FILLER_21_111
*598 FILLER_21_113
*599 FILLER_21_125
*600 FILLER_21_137
*601 FILLER_21_149
*602 FILLER_21_161
*603 FILLER_21_167
*604 FILLER_21_169
*605 FILLER_21_180
*606 FILLER_21_192
*607 FILLER_21_204
*608 FILLER_21_216
*609 FILLER_21_225
*610 FILLER_21_237
*611 FILLER_21_249
*612 FILLER_21_261
*613 FILLER_21_273
*614 FILLER_21_279
*615 FILLER_21_281
*616 FILLER_21_29
*617 FILLER_21_293
*618 FILLER_21_3
*619 FILLER_21_41
*620 FILLER_21_53
*621 FILLER_21_57
*622 FILLER_21_69
*623 FILLER_21_81
*624 FILLER_21_93
*625 FILLER_22_109
*626 FILLER_22_121
*627 FILLER_22_130
*628 FILLER_22_138
*629 FILLER_22_141
*630 FILLER_22_15
*631 FILLER_22_153
*632 FILLER_22_165
*633 FILLER_22_177
*634 FILLER_22_189
*635 FILLER_22_195
*636 FILLER_22_197
*637 FILLER_22_209
*638 FILLER_22_221
*639 FILLER_22_233
*640 FILLER_22_245
*641 FILLER_22_251
*642 FILLER_22_253
*643 FILLER_22_265
*644 FILLER_22_27
*645 FILLER_22_277
*646 FILLER_22_289
*647 FILLER_22_29
*648 FILLER_22_297
*649 FILLER_22_3
*650 FILLER_22_41
*651 FILLER_22_62
*652 FILLER_22_74
*653 FILLER_22_82
*654 FILLER_22_85
*655 FILLER_22_97
*656 FILLER_23_105
*657 FILLER_23_111
*658 FILLER_23_120
*659 FILLER_23_128
*660 FILLER_23_135
*661 FILLER_23_147
*662 FILLER_23_159
*663 FILLER_23_167
*664 FILLER_23_169
*665 FILLER_23_18
*666 FILLER_23_181
*667 FILLER_23_193
*668 FILLER_23_205
*669 FILLER_23_217
*670 FILLER_23_223
*671 FILLER_23_225
*672 FILLER_23_237
*673 FILLER_23_249
*674 FILLER_23_261
*675 FILLER_23_273
*676 FILLER_23_279
*677 FILLER_23_281
*678 FILLER_23_293
*679 FILLER_23_30
*680 FILLER_23_50
*681 FILLER_23_57
*682 FILLER_23_6
*683 FILLER_23_69
*684 FILLER_23_81
*685 FILLER_23_93
*686 FILLER_24_107
*687 FILLER_24_115
*688 FILLER_24_120
*689 FILLER_24_132
*690 FILLER_24_141
*691 FILLER_24_153
*692 FILLER_24_165
*693 FILLER_24_17
*694 FILLER_24_177
*695 FILLER_24_189
*696 FILLER_24_195
*697 FILLER_24_197
*698 FILLER_24_209
*699 FILLER_24_221
*700 FILLER_24_233
*701 FILLER_24_248
*702 FILLER_24_25
*703 FILLER_24_253
*704 FILLER_24_265
*705 FILLER_24_277
*706 FILLER_24_289
*707 FILLER_24_297
*708 FILLER_24_3
*709 FILLER_24_33
*710 FILLER_24_45
*711 FILLER_24_57
*712 FILLER_24_69
*713 FILLER_24_8
*714 FILLER_24_81
*715 FILLER_24_85
*716 FILLER_24_97
*717 FILLER_25_104
*718 FILLER_25_11
*719 FILLER_25_113
*720 FILLER_25_117
*721 FILLER_25_127
*722 FILLER_25_135
*723 FILLER_25_139
*724 FILLER_25_15
*725 FILLER_25_151
*726 FILLER_25_163
*727 FILLER_25_167
*728 FILLER_25_169
*729 FILLER_25_181
*730 FILLER_25_193
*731 FILLER_25_205
*732 FILLER_25_217
*733 FILLER_25_223
*734 FILLER_25_225
*735 FILLER_25_237
*736 FILLER_25_249
*737 FILLER_25_261
*738 FILLER_25_273
*739 FILLER_25_279
*740 FILLER_25_281
*741 FILLER_25_293
*742 FILLER_25_3
*743 FILLER_25_34
*744 FILLER_25_46
*745 FILLER_25_54
*746 FILLER_25_57
*747 FILLER_25_65
*748 FILLER_25_69
*749 FILLER_25_80
*750 FILLER_25_92
*751 FILLER_26_105
*752 FILLER_26_114
*753 FILLER_26_126
*754 FILLER_26_138
*755 FILLER_26_141
*756 FILLER_26_153
*757 FILLER_26_16
*758 FILLER_26_165
*759 FILLER_26_177
*760 FILLER_26_189
*761 FILLER_26_195
*762 FILLER_26_197
*763 FILLER_26_209
*764 FILLER_26_221
*765 FILLER_26_233
*766 FILLER_26_245
*767 FILLER_26_251
*768 FILLER_26_253
*769 FILLER_26_265
*770 FILLER_26_277
*771 FILLER_26_289
*772 FILLER_26_29
*773 FILLER_26_297
*774 FILLER_26_3
*775 FILLER_26_41
*776 FILLER_26_53
*777 FILLER_26_61
*778 FILLER_26_70
*779 FILLER_26_82
*780 FILLER_26_85
*781 FILLER_26_97
*782 FILLER_27_108
*783 FILLER_27_11
*784 FILLER_27_113
*785 FILLER_27_125
*786 FILLER_27_137
*787 FILLER_27_156
*788 FILLER_27_169
*789 FILLER_27_181
*790 FILLER_27_193
*791 FILLER_27_205
*792 FILLER_27_217
*793 FILLER_27_223
*794 FILLER_27_225
*795 FILLER_27_23
*796 FILLER_27_237
*797 FILLER_27_249
*798 FILLER_27_261
*799 FILLER_27_273
*800 FILLER_27_279
*801 FILLER_27_281
*802 FILLER_27_293
*803 FILLER_27_3
*804 FILLER_27_31
*805 FILLER_27_43
*806 FILLER_27_55
*807 FILLER_27_62
*808 FILLER_27_74
*809 FILLER_27_86
*810 FILLER_27_98
*811 FILLER_28_101
*812 FILLER_28_113
*813 FILLER_28_118
*814 FILLER_28_129
*815 FILLER_28_137
*816 FILLER_28_141
*817 FILLER_28_15
*818 FILLER_28_153
*819 FILLER_28_165
*820 FILLER_28_177
*821 FILLER_28_189
*822 FILLER_28_195
*823 FILLER_28_197
*824 FILLER_28_209
*825 FILLER_28_221
*826 FILLER_28_233
*827 FILLER_28_24
*828 FILLER_28_245
*829 FILLER_28_251
*830 FILLER_28_253
*831 FILLER_28_265
*832 FILLER_28_277
*833 FILLER_28_289
*834 FILLER_28_297
*835 FILLER_28_3
*836 FILLER_28_36
*837 FILLER_28_49
*838 FILLER_28_61
*839 FILLER_28_73
*840 FILLER_28_81
*841 FILLER_28_89
*842 FILLER_29_105
*843 FILLER_29_111
*844 FILLER_29_113
*845 FILLER_29_125
*846 FILLER_29_133
*847 FILLER_29_141
*848 FILLER_29_15
*849 FILLER_29_153
*850 FILLER_29_165
*851 FILLER_29_169
*852 FILLER_29_184
*853 FILLER_29_196
*854 FILLER_29_208
*855 FILLER_29_220
*856 FILLER_29_225
*857 FILLER_29_237
*858 FILLER_29_249
*859 FILLER_29_261
*860 FILLER_29_27
*861 FILLER_29_273
*862 FILLER_29_279
*863 FILLER_29_281
*864 FILLER_29_293
*865 FILLER_29_3
*866 FILLER_29_52
*867 FILLER_29_57
*868 FILLER_29_69
*869 FILLER_29_77
*870 FILLER_29_87
*871 FILLER_29_95
*872 FILLER_2_109
*873 FILLER_2_121
*874 FILLER_2_133
*875 FILLER_2_139
*876 FILLER_2_141
*877 FILLER_2_145
*878 FILLER_2_157
*879 FILLER_2_169
*880 FILLER_2_181
*881 FILLER_2_193
*882 FILLER_2_197
*883 FILLER_2_20
*884 FILLER_2_209
*885 FILLER_2_221
*886 FILLER_2_233
*887 FILLER_2_245
*888 FILLER_2_251
*889 FILLER_2_253
*890 FILLER_2_265
*891 FILLER_2_277
*892 FILLER_2_289
*893 FILLER_2_29
*894 FILLER_2_297
*895 FILLER_2_41
*896 FILLER_2_65
*897 FILLER_2_76
*898 FILLER_2_85
*899 FILLER_2_97
*900 FILLER_30_109
*901 FILLER_30_121
*902 FILLER_30_133
*903 FILLER_30_139
*904 FILLER_30_141
*905 FILLER_30_15
*906 FILLER_30_153
*907 FILLER_30_165
*908 FILLER_30_177
*909 FILLER_30_189
*910 FILLER_30_195
*911 FILLER_30_197
*912 FILLER_30_209
*913 FILLER_30_221
*914 FILLER_30_233
*915 FILLER_30_245
*916 FILLER_30_251
*917 FILLER_30_253
*918 FILLER_30_265
*919 FILLER_30_27
*920 FILLER_30_277
*921 FILLER_30_289
*922 FILLER_30_297
*923 FILLER_30_3
*924 FILLER_30_33
*925 FILLER_30_45
*926 FILLER_30_57
*927 FILLER_30_69
*928 FILLER_30_81
*929 FILLER_30_85
*930 FILLER_30_97
*931 FILLER_31_104
*932 FILLER_31_113
*933 FILLER_31_121
*934 FILLER_31_129
*935 FILLER_31_141
*936 FILLER_31_15
*937 FILLER_31_153
*938 FILLER_31_165
*939 FILLER_31_169
*940 FILLER_31_181
*941 FILLER_31_193
*942 FILLER_31_205
*943 FILLER_31_217
*944 FILLER_31_223
*945 FILLER_31_225
*946 FILLER_31_23
*947 FILLER_31_237
*948 FILLER_31_249
*949 FILLER_31_261
*950 FILLER_31_273
*951 FILLER_31_279
*952 FILLER_31_281
*953 FILLER_31_293
*954 FILLER_31_3
*955 FILLER_31_33
*956 FILLER_31_45
*957 FILLER_31_52
*958 FILLER_31_57
*959 FILLER_31_66
*960 FILLER_31_78
*961 FILLER_31_92
*962 FILLER_32_109
*963 FILLER_32_121
*964 FILLER_32_133
*965 FILLER_32_139
*966 FILLER_32_141
*967 FILLER_32_15
*968 FILLER_32_153
*969 FILLER_32_165
*970 FILLER_32_177
*971 FILLER_32_189
*972 FILLER_32_195
*973 FILLER_32_197
*974 FILLER_32_203
*975 FILLER_32_208
*976 FILLER_32_220
*977 FILLER_32_232
*978 FILLER_32_244
*979 FILLER_32_253
*980 FILLER_32_265
*981 FILLER_32_27
*982 FILLER_32_277
*983 FILLER_32_289
*984 FILLER_32_29
*985 FILLER_32_297
*986 FILLER_32_3
*987 FILLER_32_42
*988 FILLER_32_54
*989 FILLER_32_66
*990 FILLER_32_78
*991 FILLER_32_85
*992 FILLER_32_97
*993 FILLER_33_105
*994 FILLER_33_111
*995 FILLER_33_116
*996 FILLER_33_128
*997 FILLER_33_140
*998 FILLER_33_15
*999 FILLER_33_152
*1000 FILLER_33_164
*1001 FILLER_33_169
*1002 FILLER_33_181
*1003 FILLER_33_193
*1004 FILLER_33_197
*1005 FILLER_33_207
*1006 FILLER_33_219
*1007 FILLER_33_223
*1008 FILLER_33_225
*1009 FILLER_33_237
*1010 FILLER_33_249
*1011 FILLER_33_261
*1012 FILLER_33_27
*1013 FILLER_33_273
*1014 FILLER_33_279
*1015 FILLER_33_281
*1016 FILLER_33_293
*1017 FILLER_33_3
*1018 FILLER_33_39
*1019 FILLER_33_45
*1020 FILLER_33_51
*1021 FILLER_33_55
*1022 FILLER_33_57
*1023 FILLER_33_69
*1024 FILLER_33_81
*1025 FILLER_33_93
*1026 FILLER_34_109
*1027 FILLER_34_121
*1028 FILLER_34_133
*1029 FILLER_34_139
*1030 FILLER_34_14
*1031 FILLER_34_141
*1032 FILLER_34_153
*1033 FILLER_34_165
*1034 FILLER_34_177
*1035 FILLER_34_189
*1036 FILLER_34_195
*1037 FILLER_34_197
*1038 FILLER_34_209
*1039 FILLER_34_221
*1040 FILLER_34_233
*1041 FILLER_34_24
*1042 FILLER_34_245
*1043 FILLER_34_251
*1044 FILLER_34_253
*1045 FILLER_34_265
*1046 FILLER_34_277
*1047 FILLER_34_289
*1048 FILLER_34_297
*1049 FILLER_34_3
*1050 FILLER_34_37
*1051 FILLER_34_45
*1052 FILLER_34_57
*1053 FILLER_34_62
*1054 FILLER_34_74
*1055 FILLER_34_82
*1056 FILLER_34_85
*1057 FILLER_34_97
*1058 FILLER_35_107
*1059 FILLER_35_111
*1060 FILLER_35_113
*1061 FILLER_35_125
*1062 FILLER_35_137
*1063 FILLER_35_149
*1064 FILLER_35_161
*1065 FILLER_35_167
*1066 FILLER_35_169
*1067 FILLER_35_17
*1068 FILLER_35_181
*1069 FILLER_35_201
*1070 FILLER_35_21
*1071 FILLER_35_213
*1072 FILLER_35_221
*1073 FILLER_35_225
*1074 FILLER_35_237
*1075 FILLER_35_249
*1076 FILLER_35_261
*1077 FILLER_35_273
*1078 FILLER_35_279
*1079 FILLER_35_281
*1080 FILLER_35_293
*1081 FILLER_35_3
*1082 FILLER_35_33
*1083 FILLER_35_45
*1084 FILLER_35_53
*1085 FILLER_35_57
*1086 FILLER_35_65
*1087 FILLER_35_7
*1088 FILLER_35_71
*1089 FILLER_35_83
*1090 FILLER_35_95
*1091 FILLER_36_109
*1092 FILLER_36_121
*1093 FILLER_36_133
*1094 FILLER_36_139
*1095 FILLER_36_141
*1096 FILLER_36_15
*1097 FILLER_36_153
*1098 FILLER_36_165
*1099 FILLER_36_177
*1100 FILLER_36_189
*1101 FILLER_36_195
*1102 FILLER_36_197
*1103 FILLER_36_209
*1104 FILLER_36_221
*1105 FILLER_36_233
*1106 FILLER_36_245
*1107 FILLER_36_251
*1108 FILLER_36_253
*1109 FILLER_36_265
*1110 FILLER_36_27
*1111 FILLER_36_277
*1112 FILLER_36_289
*1113 FILLER_36_29
*1114 FILLER_36_297
*1115 FILLER_36_3
*1116 FILLER_36_41
*1117 FILLER_36_53
*1118 FILLER_36_72
*1119 FILLER_36_79
*1120 FILLER_36_83
*1121 FILLER_36_85
*1122 FILLER_36_97
*1123 FILLER_37_105
*1124 FILLER_37_111
*1125 FILLER_37_120
*1126 FILLER_37_132
*1127 FILLER_37_144
*1128 FILLER_37_15
*1129 FILLER_37_156
*1130 FILLER_37_169
*1131 FILLER_37_181
*1132 FILLER_37_193
*1133 FILLER_37_205
*1134 FILLER_37_217
*1135 FILLER_37_223
*1136 FILLER_37_225
*1137 FILLER_37_237
*1138 FILLER_37_249
*1139 FILLER_37_261
*1140 FILLER_37_27
*1141 FILLER_37_273
*1142 FILLER_37_279
*1143 FILLER_37_281
*1144 FILLER_37_293
*1145 FILLER_37_3
*1146 FILLER_37_39
*1147 FILLER_37_51
*1148 FILLER_37_55
*1149 FILLER_37_57
*1150 FILLER_37_69
*1151 FILLER_37_81
*1152 FILLER_37_93
*1153 FILLER_38_109
*1154 FILLER_38_121
*1155 FILLER_38_132
*1156 FILLER_38_141
*1157 FILLER_38_15
*1158 FILLER_38_153
*1159 FILLER_38_165
*1160 FILLER_38_177
*1161 FILLER_38_189
*1162 FILLER_38_195
*1163 FILLER_38_197
*1164 FILLER_38_209
*1165 FILLER_38_221
*1166 FILLER_38_233
*1167 FILLER_38_245
*1168 FILLER_38_251
*1169 FILLER_38_253
*1170 FILLER_38_265
*1171 FILLER_38_27
*1172 FILLER_38_277
*1173 FILLER_38_289
*1174 FILLER_38_29
*1175 FILLER_38_297
*1176 FILLER_38_3
*1177 FILLER_38_41
*1178 FILLER_38_53
*1179 FILLER_38_65
*1180 FILLER_38_77
*1181 FILLER_38_83
*1182 FILLER_38_85
*1183 FILLER_38_97
*1184 FILLER_39_111
*1185 FILLER_39_113
*1186 FILLER_39_125
*1187 FILLER_39_137
*1188 FILLER_39_15
*1189 FILLER_39_152
*1190 FILLER_39_164
*1191 FILLER_39_174
*1192 FILLER_39_186
*1193 FILLER_39_198
*1194 FILLER_39_210
*1195 FILLER_39_222
*1196 FILLER_39_225
*1197 FILLER_39_237
*1198 FILLER_39_249
*1199 FILLER_39_261
*1200 FILLER_39_27
*1201 FILLER_39_273
*1202 FILLER_39_279
*1203 FILLER_39_281
*1204 FILLER_39_293
*1205 FILLER_39_3
*1206 FILLER_39_39
*1207 FILLER_39_51
*1208 FILLER_39_55
*1209 FILLER_39_63
*1210 FILLER_39_75
*1211 FILLER_39_87
*1212 FILLER_39_99
*1213 FILLER_3_109
*1214 FILLER_3_113
*1215 FILLER_3_125
*1216 FILLER_3_137
*1217 FILLER_3_149
*1218 FILLER_3_15
*1219 FILLER_3_161
*1220 FILLER_3_167
*1221 FILLER_3_169
*1222 FILLER_3_181
*1223 FILLER_3_193
*1224 FILLER_3_205
*1225 FILLER_3_217
*1226 FILLER_3_223
*1227 FILLER_3_225
*1228 FILLER_3_237
*1229 FILLER_3_249
*1230 FILLER_3_262
*1231 FILLER_3_274
*1232 FILLER_3_281
*1233 FILLER_3_293
*1234 FILLER_3_3
*1235 FILLER_3_36
*1236 FILLER_3_48
*1237 FILLER_3_73
*1238 FILLER_3_85
*1239 FILLER_3_97
*1240 FILLER_40_109
*1241 FILLER_40_121
*1242 FILLER_40_133
*1243 FILLER_40_139
*1244 FILLER_40_141
*1245 FILLER_40_147
*1246 FILLER_40_15
*1247 FILLER_40_159
*1248 FILLER_40_171
*1249 FILLER_40_183
*1250 FILLER_40_195
*1251 FILLER_40_197
*1252 FILLER_40_209
*1253 FILLER_40_221
*1254 FILLER_40_233
*1255 FILLER_40_245
*1256 FILLER_40_251
*1257 FILLER_40_253
*1258 FILLER_40_265
*1259 FILLER_40_27
*1260 FILLER_40_277
*1261 FILLER_40_289
*1262 FILLER_40_29
*1263 FILLER_40_295
*1264 FILLER_40_3
*1265 FILLER_40_33
*1266 FILLER_40_38
*1267 FILLER_40_50
*1268 FILLER_40_62
*1269 FILLER_40_74
*1270 FILLER_40_82
*1271 FILLER_40_85
*1272 FILLER_40_97
*1273 FILLER_41_110
*1274 FILLER_41_113
*1275 FILLER_41_125
*1276 FILLER_41_137
*1277 FILLER_41_149
*1278 FILLER_41_15
*1279 FILLER_41_161
*1280 FILLER_41_167
*1281 FILLER_41_169
*1282 FILLER_41_181
*1283 FILLER_41_193
*1284 FILLER_41_205
*1285 FILLER_41_217
*1286 FILLER_41_223
*1287 FILLER_41_225
*1288 FILLER_41_237
*1289 FILLER_41_249
*1290 FILLER_41_261
*1291 FILLER_41_27
*1292 FILLER_41_273
*1293 FILLER_41_279
*1294 FILLER_41_281
*1295 FILLER_41_293
*1296 FILLER_41_3
*1297 FILLER_41_39
*1298 FILLER_41_51
*1299 FILLER_41_55
*1300 FILLER_41_57
*1301 FILLER_41_69
*1302 FILLER_41_79
*1303 FILLER_41_91
*1304 FILLER_41_98
*1305 FILLER_42_109
*1306 FILLER_42_123
*1307 FILLER_42_135
*1308 FILLER_42_139
*1309 FILLER_42_141
*1310 FILLER_42_15
*1311 FILLER_42_153
*1312 FILLER_42_165
*1313 FILLER_42_177
*1314 FILLER_42_189
*1315 FILLER_42_195
*1316 FILLER_42_197
*1317 FILLER_42_209
*1318 FILLER_42_221
*1319 FILLER_42_233
*1320 FILLER_42_245
*1321 FILLER_42_251
*1322 FILLER_42_253
*1323 FILLER_42_265
*1324 FILLER_42_27
*1325 FILLER_42_277
*1326 FILLER_42_289
*1327 FILLER_42_29
*1328 FILLER_42_297
*1329 FILLER_42_3
*1330 FILLER_42_41
*1331 FILLER_42_53
*1332 FILLER_42_65
*1333 FILLER_42_77
*1334 FILLER_42_83
*1335 FILLER_42_85
*1336 FILLER_42_97
*1337 FILLER_43_104
*1338 FILLER_43_113
*1339 FILLER_43_125
*1340 FILLER_43_137
*1341 FILLER_43_149
*1342 FILLER_43_15
*1343 FILLER_43_161
*1344 FILLER_43_167
*1345 FILLER_43_169
*1346 FILLER_43_181
*1347 FILLER_43_193
*1348 FILLER_43_205
*1349 FILLER_43_217
*1350 FILLER_43_223
*1351 FILLER_43_225
*1352 FILLER_43_237
*1353 FILLER_43_249
*1354 FILLER_43_261
*1355 FILLER_43_27
*1356 FILLER_43_273
*1357 FILLER_43_279
*1358 FILLER_43_281
*1359 FILLER_43_293
*1360 FILLER_43_3
*1361 FILLER_43_39
*1362 FILLER_43_51
*1363 FILLER_43_55
*1364 FILLER_43_57
*1365 FILLER_43_61
*1366 FILLER_43_67
*1367 FILLER_43_78
*1368 FILLER_43_92
*1369 FILLER_44_100
*1370 FILLER_44_112
*1371 FILLER_44_124
*1372 FILLER_44_136
*1373 FILLER_44_141
*1374 FILLER_44_15
*1375 FILLER_44_153
*1376 FILLER_44_165
*1377 FILLER_44_177
*1378 FILLER_44_189
*1379 FILLER_44_195
*1380 FILLER_44_197
*1381 FILLER_44_209
*1382 FILLER_44_221
*1383 FILLER_44_233
*1384 FILLER_44_245
*1385 FILLER_44_251
*1386 FILLER_44_253
*1387 FILLER_44_265
*1388 FILLER_44_27
*1389 FILLER_44_277
*1390 FILLER_44_289
*1391 FILLER_44_29
*1392 FILLER_44_297
*1393 FILLER_44_3
*1394 FILLER_44_41
*1395 FILLER_44_53
*1396 FILLER_44_65
*1397 FILLER_44_77
*1398 FILLER_44_83
*1399 FILLER_44_88
*1400 FILLER_45_107
*1401 FILLER_45_111
*1402 FILLER_45_113
*1403 FILLER_45_125
*1404 FILLER_45_137
*1405 FILLER_45_149
*1406 FILLER_45_15
*1407 FILLER_45_161
*1408 FILLER_45_167
*1409 FILLER_45_169
*1410 FILLER_45_181
*1411 FILLER_45_193
*1412 FILLER_45_205
*1413 FILLER_45_217
*1414 FILLER_45_223
*1415 FILLER_45_225
*1416 FILLER_45_237
*1417 FILLER_45_249
*1418 FILLER_45_261
*1419 FILLER_45_27
*1420 FILLER_45_273
*1421 FILLER_45_279
*1422 FILLER_45_281
*1423 FILLER_45_293
*1424 FILLER_45_3
*1425 FILLER_45_39
*1426 FILLER_45_51
*1427 FILLER_45_55
*1428 FILLER_45_57
*1429 FILLER_45_69
*1430 FILLER_45_81
*1431 FILLER_45_93
*1432 FILLER_45_99
*1433 FILLER_46_109
*1434 FILLER_46_121
*1435 FILLER_46_133
*1436 FILLER_46_139
*1437 FILLER_46_141
*1438 FILLER_46_15
*1439 FILLER_46_153
*1440 FILLER_46_165
*1441 FILLER_46_177
*1442 FILLER_46_185
*1443 FILLER_46_193
*1444 FILLER_46_197
*1445 FILLER_46_209
*1446 FILLER_46_221
*1447 FILLER_46_233
*1448 FILLER_46_245
*1449 FILLER_46_251
*1450 FILLER_46_253
*1451 FILLER_46_265
*1452 FILLER_46_27
*1453 FILLER_46_277
*1454 FILLER_46_289
*1455 FILLER_46_29
*1456 FILLER_46_297
*1457 FILLER_46_3
*1458 FILLER_46_41
*1459 FILLER_46_53
*1460 FILLER_46_65
*1461 FILLER_46_77
*1462 FILLER_46_83
*1463 FILLER_46_85
*1464 FILLER_46_97
*1465 FILLER_47_108
*1466 FILLER_47_113
*1467 FILLER_47_125
*1468 FILLER_47_137
*1469 FILLER_47_149
*1470 FILLER_47_15
*1471 FILLER_47_161
*1472 FILLER_47_167
*1473 FILLER_47_169
*1474 FILLER_47_181
*1475 FILLER_47_193
*1476 FILLER_47_205
*1477 FILLER_47_217
*1478 FILLER_47_223
*1479 FILLER_47_225
*1480 FILLER_47_237
*1481 FILLER_47_249
*1482 FILLER_47_261
*1483 FILLER_47_27
*1484 FILLER_47_273
*1485 FILLER_47_279
*1486 FILLER_47_281
*1487 FILLER_47_293
*1488 FILLER_47_3
*1489 FILLER_47_39
*1490 FILLER_47_51
*1491 FILLER_47_55
*1492 FILLER_47_57
*1493 FILLER_47_69
*1494 FILLER_47_81
*1495 FILLER_47_87
*1496 FILLER_47_96
*1497 FILLER_48_109
*1498 FILLER_48_121
*1499 FILLER_48_133
*1500 FILLER_48_139
*1501 FILLER_48_141
*1502 FILLER_48_149
*1503 FILLER_48_15
*1504 FILLER_48_161
*1505 FILLER_48_173
*1506 FILLER_48_185
*1507 FILLER_48_193
*1508 FILLER_48_197
*1509 FILLER_48_209
*1510 FILLER_48_221
*1511 FILLER_48_233
*1512 FILLER_48_245
*1513 FILLER_48_251
*1514 FILLER_48_253
*1515 FILLER_48_265
*1516 FILLER_48_27
*1517 FILLER_48_277
*1518 FILLER_48_289
*1519 FILLER_48_29
*1520 FILLER_48_297
*1521 FILLER_48_3
*1522 FILLER_48_41
*1523 FILLER_48_53
*1524 FILLER_48_65
*1525 FILLER_48_77
*1526 FILLER_48_83
*1527 FILLER_48_85
*1528 FILLER_48_97
*1529 FILLER_49_105
*1530 FILLER_49_111
*1531 FILLER_49_113
*1532 FILLER_49_125
*1533 FILLER_49_137
*1534 FILLER_49_149
*1535 FILLER_49_15
*1536 FILLER_49_161
*1537 FILLER_49_167
*1538 FILLER_49_169
*1539 FILLER_49_181
*1540 FILLER_49_193
*1541 FILLER_49_205
*1542 FILLER_49_217
*1543 FILLER_49_223
*1544 FILLER_49_225
*1545 FILLER_49_237
*1546 FILLER_49_249
*1547 FILLER_49_261
*1548 FILLER_49_27
*1549 FILLER_49_273
*1550 FILLER_49_279
*1551 FILLER_49_281
*1552 FILLER_49_293
*1553 FILLER_49_3
*1554 FILLER_49_39
*1555 FILLER_49_51
*1556 FILLER_49_55
*1557 FILLER_49_57
*1558 FILLER_49_69
*1559 FILLER_49_81
*1560 FILLER_49_93
*1561 FILLER_4_105
*1562 FILLER_4_117
*1563 FILLER_4_129
*1564 FILLER_4_137
*1565 FILLER_4_141
*1566 FILLER_4_153
*1567 FILLER_4_160
*1568 FILLER_4_172
*1569 FILLER_4_184
*1570 FILLER_4_197
*1571 FILLER_4_20
*1572 FILLER_4_209
*1573 FILLER_4_221
*1574 FILLER_4_233
*1575 FILLER_4_24
*1576 FILLER_4_245
*1577 FILLER_4_251
*1578 FILLER_4_253
*1579 FILLER_4_261
*1580 FILLER_4_264
*1581 FILLER_4_275
*1582 FILLER_4_283
*1583 FILLER_4_29
*1584 FILLER_4_295
*1585 FILLER_4_35
*1586 FILLER_4_53
*1587 FILLER_4_73
*1588 FILLER_4_81
*1589 FILLER_4_85
*1590 FILLER_4_93
*1591 FILLER_50_109
*1592 FILLER_50_121
*1593 FILLER_50_133
*1594 FILLER_50_139
*1595 FILLER_50_141
*1596 FILLER_50_15
*1597 FILLER_50_153
*1598 FILLER_50_165
*1599 FILLER_50_177
*1600 FILLER_50_189
*1601 FILLER_50_195
*1602 FILLER_50_197
*1603 FILLER_50_209
*1604 FILLER_50_221
*1605 FILLER_50_233
*1606 FILLER_50_245
*1607 FILLER_50_251
*1608 FILLER_50_253
*1609 FILLER_50_265
*1610 FILLER_50_27
*1611 FILLER_50_277
*1612 FILLER_50_289
*1613 FILLER_50_29
*1614 FILLER_50_297
*1615 FILLER_50_3
*1616 FILLER_50_41
*1617 FILLER_50_53
*1618 FILLER_50_65
*1619 FILLER_50_77
*1620 FILLER_50_83
*1621 FILLER_50_85
*1622 FILLER_50_97