*SPEF "ieee 1481-1999"
*DESIGN "regymm_funnyblinky"
*DATE "11:11:11 Fri 11 11, 1111"
*VENDOR "OpenRCX"
*PROGRAM "Parallel Extraction"
*VERSION "1.0"
*DESIGN_FLOW "NAME_SCOPE LOCAL" "PIN_CAP NONE"
*DIVIDER /
*DELIMITER :
*BUS_DELIMITER []
*T_UNIT 1 NS
*C_UNIT 1 PF
*R_UNIT 1 OHM
*L_UNIT 1 HENRY

*NAME_MAP
*1 io_in[0]
*2 io_in[1]
*3 io_in[2]
*4 io_in[3]
*5 io_in[4]
*6 io_in[5]
*7 io_in[6]
*8 io_in[7]
*9 io_out[0]
*10 io_out[1]
*11 io_out[2]
*12 io_out[3]
*13 io_out[4]
*14 io_out[5]
*15 io_out[6]
*16 io_out[7]
*19 _000_
*20 _001_
*21 _002_
*22 _003_
*23 _004_
*24 _005_
*25 _006_
*26 _007_
*27 _008_
*28 _009_
*29 _010_
*30 _011_
*31 _012_
*32 _013_
*33 _014_
*34 _015_
*35 _016_
*36 _017_
*37 _018_
*38 _019_
*39 _020_
*40 _021_
*41 _022_
*42 _023_
*43 _024_
*44 _025_
*45 _026_
*46 _027_
*47 _028_
*48 _029_
*49 _030_
*50 _031_
*51 _032_
*52 _033_
*53 _034_
*54 _035_
*55 _036_
*56 _037_
*57 _038_
*58 _039_
*59 _040_
*60 _041_
*61 _042_
*62 _043_
*63 _044_
*64 _045_
*65 _046_
*66 _047_
*67 _048_
*68 _049_
*69 _050_
*70 _051_
*71 _052_
*72 _053_
*73 _054_
*74 _055_
*75 _056_
*76 _057_
*77 _058_
*78 _059_
*79 _060_
*80 _061_
*81 _062_
*82 _063_
*83 _064_
*84 _065_
*85 _066_
*86 _067_
*87 _068_
*88 _069_
*89 _070_
*90 _071_
*91 _072_
*92 _073_
*93 _074_
*94 _075_
*95 _076_
*96 _077_
*97 _078_
*98 _079_
*99 _080_
*100 _081_
*101 _082_
*102 _083_
*103 _084_
*104 _085_
*105 _086_
*106 _087_
*107 _088_
*108 _089_
*109 _090_
*110 _091_
*111 _092_
*112 _093_
*113 _094_
*114 _095_
*115 _096_
*116 _097_
*117 _098_
*118 _099_
*119 _100_
*120 _101_
*121 _102_
*122 _103_
*123 _104_
*124 _105_
*125 _106_
*126 _107_
*127 _108_
*128 _109_
*129 _110_
*130 _111_
*131 _112_
*132 _113_
*133 _114_
*134 _115_
*135 _116_
*136 _117_
*137 _118_
*138 _119_
*139 _120_
*140 _121_
*141 _122_
*142 _123_
*143 _124_
*144 _125_
*145 _126_
*146 _127_
*147 _128_
*148 _129_
*149 _130_
*150 _131_
*151 _132_
*152 _133_
*153 _134_
*154 _135_
*155 _136_
*156 _137_
*157 _138_
*158 _139_
*159 _140_
*160 _141_
*161 _142_
*162 _143_
*163 _144_
*164 _145_
*165 _146_
*166 _147_
*167 _148_
*168 _149_
*169 _150_
*170 _151_
*171 _152_
*172 _153_
*173 _154_
*174 _155_
*175 _156_
*176 _157_
*177 _158_
*178 _159_
*179 _160_
*180 _161_
*181 _162_
*182 _163_
*183 _164_
*184 _165_
*185 _166_
*186 _167_
*187 _168_
*188 _169_
*189 _170_
*190 _171_
*191 _172_
*192 _173_
*193 _174_
*194 _175_
*195 _176_
*196 _177_
*197 _178_
*198 _179_
*199 _180_
*200 _181_
*201 _182_
*202 _183_
*203 _184_
*204 _185_
*205 _186_
*206 _187_
*207 _188_
*208 _189_
*209 _190_
*210 _191_
*211 _192_
*212 _193_
*213 _194_
*214 _195_
*215 _196_
*216 _197_
*217 _198_
*218 _199_
*219 _200_
*220 _201_
*221 _202_
*222 _203_
*223 _204_
*224 _205_
*225 _206_
*226 _207_
*227 _208_
*228 _209_
*229 _210_
*230 _211_
*231 _212_
*232 _213_
*233 _214_
*234 _215_
*235 _216_
*236 _217_
*237 _218_
*238 _219_
*239 _220_
*240 _221_
*241 _222_
*242 _223_
*243 _224_
*244 _225_
*245 _226_
*246 _227_
*247 _228_
*248 _229_
*249 _230_
*250 _231_
*251 _232_
*252 _233_
*253 _234_
*254 _235_
*255 _236_
*256 _237_
*257 _238_
*258 _239_
*259 _240_
*260 _241_
*261 _242_
*262 _243_
*263 _244_
*264 _245_
*265 _246_
*266 _247_
*267 _248_
*268 _249_
*269 _250_
*270 _251_
*271 _252_
*272 _253_
*273 _254_
*274 _255_
*275 _256_
*276 _257_
*277 _258_
*278 _259_
*279 _260_
*280 _261_
*281 _262_
*282 _263_
*283 _264_
*284 _265_
*285 _266_
*286 _267_
*287 _268_
*288 _269_
*289 _270_
*290 _271_
*291 _272_
*292 _273_
*293 _274_
*294 _275_
*295 _276_
*296 _277_
*297 _278_
*298 _279_
*299 _280_
*300 _281_
*301 _282_
*302 _283_
*303 _284_
*304 _285_
*305 _286_
*306 _287_
*307 _288_
*308 _289_
*309 _290_
*310 _291_
*311 _292_
*312 _293_
*313 _294_
*314 _295_
*315 _296_
*316 _297_
*317 _298_
*318 _299_
*319 _300_
*320 _301_
*321 _302_
*322 clknet_0_io_in[0]
*323 clknet_2_0__leaf_io_in[0]
*324 clknet_2_1__leaf_io_in[0]
*325 clknet_2_2__leaf_io_in[0]
*326 clknet_2_3__leaf_io_in[0]
*327 clkslow
*328 cnt2\[0\]
*329 cnt2\[10\]
*330 cnt2\[11\]
*331 cnt2\[12\]
*332 cnt2\[13\]
*333 cnt2\[1\]
*334 cnt2\[2\]
*335 cnt2\[3\]
*336 cnt2\[4\]
*337 cnt2\[5\]
*338 cnt2\[6\]
*339 cnt2\[7\]
*340 cnt2\[8\]
*341 cnt2\[9\]
*342 cnt\[0\]
*343 cnt\[10\]
*344 cnt\[11\]
*345 cnt\[12\]
*346 cnt\[13\]
*347 cnt\[1\]
*348 cnt\[2\]
*349 cnt\[3\]
*350 cnt\[4\]
*351 cnt\[5\]
*352 cnt\[6\]
*353 cnt\[7\]
*354 cnt\[8\]
*355 cnt\[9\]
*356 cntf\[0\]
*357 cntf\[1\]
*358 cntf\[2\]
*359 cntslow\[0\]
*360 cntslow\[1\]
*361 cntslow\[2\]
*362 cntslow\[3\]
*363 cntslow\[4\]
*364 cntslow\[5\]
*365 cntslow\[6\]
*366 net1
*367 net2
*368 net3
*369 net4
*370 net5
*371 net6
*372 net7
*373 net8
*374 net9
*375 sig1r
*376 sig1rr
*377 sig2r
*378 sig2rr
*379 ANTENNA_0
*380 ANTENNA_1
*381 FILLER_0_101
*382 FILLER_0_109
*383 FILLER_0_113
*384 FILLER_0_125
*385 FILLER_0_137
*386 FILLER_0_141
*387 FILLER_0_153
*388 FILLER_0_165
*389 FILLER_0_169
*390 FILLER_0_181
*391 FILLER_0_193
*392 FILLER_0_197
*393 FILLER_0_209
*394 FILLER_0_221
*395 FILLER_0_225
*396 FILLER_0_237
*397 FILLER_0_24
*398 FILLER_0_249
*399 FILLER_0_253
*400 FILLER_0_265
*401 FILLER_0_277
*402 FILLER_0_281
*403 FILLER_0_29
*404 FILLER_0_293
*405 FILLER_0_3
*406 FILLER_0_51
*407 FILLER_0_55
*408 FILLER_0_73
*409 FILLER_0_81
*410 FILLER_0_89
*411 FILLER_10_100
*412 FILLER_10_106
*413 FILLER_10_112
*414 FILLER_10_124
*415 FILLER_10_131
*416 FILLER_10_139
*417 FILLER_10_141
*418 FILLER_10_153
*419 FILLER_10_165
*420 FILLER_10_177
*421 FILLER_10_189
*422 FILLER_10_195
*423 FILLER_10_197
*424 FILLER_10_20
*425 FILLER_10_209
*426 FILLER_10_221
*427 FILLER_10_233
*428 FILLER_10_245
*429 FILLER_10_251
*430 FILLER_10_253
*431 FILLER_10_265
*432 FILLER_10_277
*433 FILLER_10_289
*434 FILLER_10_29
*435 FILLER_10_297
*436 FILLER_10_3
*437 FILLER_10_48
*438 FILLER_10_63
*439 FILLER_10_74
*440 FILLER_10_82
*441 FILLER_10_88
*442 FILLER_11_107
*443 FILLER_11_111
*444 FILLER_11_113
*445 FILLER_11_124
*446 FILLER_11_128
*447 FILLER_11_139
*448 FILLER_11_151
*449 FILLER_11_163
*450 FILLER_11_167
*451 FILLER_11_169
*452 FILLER_11_181
*453 FILLER_11_19
*454 FILLER_11_193
*455 FILLER_11_205
*456 FILLER_11_217
*457 FILLER_11_223
*458 FILLER_11_225
*459 FILLER_11_237
*460 FILLER_11_249
*461 FILLER_11_261
*462 FILLER_11_273
*463 FILLER_11_279
*464 FILLER_11_281
*465 FILLER_11_293
*466 FILLER_11_31
*467 FILLER_11_48
*468 FILLER_11_57
*469 FILLER_11_61
*470 FILLER_11_73
*471 FILLER_11_85
*472 FILLER_11_96
*473 FILLER_12_107
*474 FILLER_12_119
*475 FILLER_12_128
*476 FILLER_12_141
*477 FILLER_12_153
*478 FILLER_12_165
*479 FILLER_12_177
*480 FILLER_12_189
*481 FILLER_12_19
*482 FILLER_12_195
*483 FILLER_12_197
*484 FILLER_12_209
*485 FILLER_12_221
*486 FILLER_12_233
*487 FILLER_12_245
*488 FILLER_12_251
*489 FILLER_12_253
*490 FILLER_12_265
*491 FILLER_12_27
*492 FILLER_12_277
*493 FILLER_12_289
*494 FILLER_12_29
*495 FILLER_12_297
*496 FILLER_12_48
*497 FILLER_12_68
*498 FILLER_12_76
*499 FILLER_12_95
*500 FILLER_13_101
*501 FILLER_13_109
*502 FILLER_13_113
*503 FILLER_13_125
*504 FILLER_13_137
*505 FILLER_13_149
*506 FILLER_13_161
*507 FILLER_13_167
*508 FILLER_13_169
*509 FILLER_13_181
*510 FILLER_13_193
*511 FILLER_13_205
*512 FILLER_13_21
*513 FILLER_13_217
*514 FILLER_13_223
*515 FILLER_13_225
*516 FILLER_13_237
*517 FILLER_13_249
*518 FILLER_13_261
*519 FILLER_13_273
*520 FILLER_13_279
*521 FILLER_13_281
*522 FILLER_13_29
*523 FILLER_13_293
*524 FILLER_13_3
*525 FILLER_13_48
*526 FILLER_13_57
*527 FILLER_13_64
*528 FILLER_13_72
*529 FILLER_13_80
*530 FILLER_13_92
*531 FILLER_14_107
*532 FILLER_14_111
*533 FILLER_14_122
*534 FILLER_14_13
*535 FILLER_14_134
*536 FILLER_14_141
*537 FILLER_14_153
*538 FILLER_14_165
*539 FILLER_14_177
*540 FILLER_14_189
*541 FILLER_14_195
*542 FILLER_14_197
*543 FILLER_14_209
*544 FILLER_14_221
*545 FILLER_14_233
*546 FILLER_14_245
*547 FILLER_14_25
*548 FILLER_14_251
*549 FILLER_14_253
*550 FILLER_14_265
*551 FILLER_14_277
*552 FILLER_14_289
*553 FILLER_14_29
*554 FILLER_14_297
*555 FILLER_14_48
*556 FILLER_14_56
*557 FILLER_14_62
*558 FILLER_14_76
*559 FILLER_14_89
*560 FILLER_14_97
*561 FILLER_15_107
*562 FILLER_15_11
*563 FILLER_15_111
*564 FILLER_15_113
*565 FILLER_15_125
*566 FILLER_15_137
*567 FILLER_15_149
*568 FILLER_15_161
*569 FILLER_15_167
*570 FILLER_15_169
*571 FILLER_15_18
*572 FILLER_15_181
*573 FILLER_15_193
*574 FILLER_15_205
*575 FILLER_15_217
*576 FILLER_15_223
*577 FILLER_15_225
*578 FILLER_15_237
*579 FILLER_15_249
*580 FILLER_15_25
*581 FILLER_15_261
*582 FILLER_15_273
*583 FILLER_15_279
*584 FILLER_15_281
*585 FILLER_15_293
*586 FILLER_15_3
*587 FILLER_15_47
*588 FILLER_15_55
*589 FILLER_15_60
*590 FILLER_15_67
*591 FILLER_15_7
*592 FILLER_15_71
*593 FILLER_15_82
*594 FILLER_16_103
*595 FILLER_16_113
*596 FILLER_16_125
*597 FILLER_16_13
*598 FILLER_16_137
*599 FILLER_16_141
*600 FILLER_16_153
*601 FILLER_16_165
*602 FILLER_16_17
*603 FILLER_16_177
*604 FILLER_16_189
*605 FILLER_16_195
*606 FILLER_16_197
*607 FILLER_16_209
*608 FILLER_16_221
*609 FILLER_16_233
*610 FILLER_16_24
*611 FILLER_16_245
*612 FILLER_16_251
*613 FILLER_16_253
*614 FILLER_16_265
*615 FILLER_16_277
*616 FILLER_16_289
*617 FILLER_16_29
*618 FILLER_16_297
*619 FILLER_16_3
*620 FILLER_16_38
*621 FILLER_16_49
*622 FILLER_16_57
*623 FILLER_16_68
*624 FILLER_16_77
*625 FILLER_16_83
*626 FILLER_16_9
*627 FILLER_16_91
*628 FILLER_17_101
*629 FILLER_17_109
*630 FILLER_17_11
*631 FILLER_17_113
*632 FILLER_17_121
*633 FILLER_17_128
*634 FILLER_17_140
*635 FILLER_17_152
*636 FILLER_17_164
*637 FILLER_17_169
*638 FILLER_17_181
*639 FILLER_17_193
*640 FILLER_17_205
*641 FILLER_17_217
*642 FILLER_17_22
*643 FILLER_17_223
*644 FILLER_17_225
*645 FILLER_17_237
*646 FILLER_17_249
*647 FILLER_17_261
*648 FILLER_17_273
*649 FILLER_17_279
*650 FILLER_17_281
*651 FILLER_17_293
*652 FILLER_17_3
*653 FILLER_17_35
*654 FILLER_17_43
*655 FILLER_17_52
*656 FILLER_17_57
*657 FILLER_17_61
*658 FILLER_17_7
*659 FILLER_17_72
*660 FILLER_18_104
*661 FILLER_18_11
*662 FILLER_18_116
*663 FILLER_18_128
*664 FILLER_18_141
*665 FILLER_18_153
*666 FILLER_18_165
*667 FILLER_18_17
*668 FILLER_18_177
*669 FILLER_18_189
*670 FILLER_18_195
*671 FILLER_18_197
*672 FILLER_18_209
*673 FILLER_18_221
*674 FILLER_18_233
*675 FILLER_18_24
*676 FILLER_18_245
*677 FILLER_18_251
*678 FILLER_18_253
*679 FILLER_18_265
*680 FILLER_18_277
*681 FILLER_18_289
*682 FILLER_18_297
*683 FILLER_18_3
*684 FILLER_18_39
*685 FILLER_18_55
*686 FILLER_18_66
*687 FILLER_18_80
*688 FILLER_18_88
*689 FILLER_18_94
*690 FILLER_19_111
*691 FILLER_19_113
*692 FILLER_19_125
*693 FILLER_19_137
*694 FILLER_19_149
*695 FILLER_19_161
*696 FILLER_19_167
*697 FILLER_19_169
*698 FILLER_19_181
*699 FILLER_19_193
*700 FILLER_19_205
*701 FILLER_19_217
*702 FILLER_19_22
*703 FILLER_19_223
*704 FILLER_19_225
*705 FILLER_19_237
*706 FILLER_19_249
*707 FILLER_19_261
*708 FILLER_19_273
*709 FILLER_19_279
*710 FILLER_19_281
*711 FILLER_19_293
*712 FILLER_19_3
*713 FILLER_19_34
*714 FILLER_19_40
*715 FILLER_19_48
*716 FILLER_19_61
*717 FILLER_19_73
*718 FILLER_19_81
*719 FILLER_19_87
*720 FILLER_19_9
*721 FILLER_19_99
*722 FILLER_1_111
*723 FILLER_1_121
*724 FILLER_1_133
*725 FILLER_1_145
*726 FILLER_1_157
*727 FILLER_1_165
*728 FILLER_1_169
*729 FILLER_1_181
*730 FILLER_1_193
*731 FILLER_1_205
*732 FILLER_1_217
*733 FILLER_1_223
*734 FILLER_1_225
*735 FILLER_1_237
*736 FILLER_1_249
*737 FILLER_1_261
*738 FILLER_1_273
*739 FILLER_1_279
*740 FILLER_1_281
*741 FILLER_1_293
*742 FILLER_1_3
*743 FILLER_1_31
*744 FILLER_1_51
*745 FILLER_1_55
*746 FILLER_1_73
*747 FILLER_1_84
*748 FILLER_1_92
*749 FILLER_1_99
*750 FILLER_20_103
*751 FILLER_20_115
*752 FILLER_20_127
*753 FILLER_20_139
*754 FILLER_20_141
*755 FILLER_20_153
*756 FILLER_20_165
*757 FILLER_20_177
*758 FILLER_20_189
*759 FILLER_20_19
*760 FILLER_20_195
*761 FILLER_20_197
*762 FILLER_20_209
*763 FILLER_20_221
*764 FILLER_20_233
*765 FILLER_20_245
*766 FILLER_20_251
*767 FILLER_20_253
*768 FILLER_20_265
*769 FILLER_20_27
*770 FILLER_20_277
*771 FILLER_20_289
*772 FILLER_20_297
*773 FILLER_20_3
*774 FILLER_20_34
*775 FILLER_20_63
*776 FILLER_20_71
*777 FILLER_20_80
*778 FILLER_20_93
*779 FILLER_21_102
*780 FILLER_21_110
*781 FILLER_21_113
*782 FILLER_21_125
*783 FILLER_21_13
*784 FILLER_21_137
*785 FILLER_21_149
*786 FILLER_21_161
*787 FILLER_21_167
*788 FILLER_21_169
*789 FILLER_21_181
*790 FILLER_21_19
*791 FILLER_21_193
*792 FILLER_21_205
*793 FILLER_21_217
*794 FILLER_21_223
*795 FILLER_21_225
*796 FILLER_21_237
*797 FILLER_21_249
*798 FILLER_21_261
*799 FILLER_21_273
*800 FILLER_21_279
*801 FILLER_21_281
*802 FILLER_21_29
*803 FILLER_21_293
*804 FILLER_21_3
*805 FILLER_21_37
*806 FILLER_21_48
*807 FILLER_21_57
*808 FILLER_21_71
*809 FILLER_21_80
*810 FILLER_21_9
*811 FILLER_21_90
*812 FILLER_22_103
*813 FILLER_22_115
*814 FILLER_22_127
*815 FILLER_22_139
*816 FILLER_22_141
*817 FILLER_22_15
*818 FILLER_22_153
*819 FILLER_22_165
*820 FILLER_22_177
*821 FILLER_22_189
*822 FILLER_22_195
*823 FILLER_22_197
*824 FILLER_22_209
*825 FILLER_22_221
*826 FILLER_22_233
*827 FILLER_22_24
*828 FILLER_22_245
*829 FILLER_22_251
*830 FILLER_22_253
*831 FILLER_22_265
*832 FILLER_22_277
*833 FILLER_22_289
*834 FILLER_22_29
*835 FILLER_22_297
*836 FILLER_22_3
*837 FILLER_22_33
*838 FILLER_22_40
*839 FILLER_22_44
*840 FILLER_22_49
*841 FILLER_22_57
*842 FILLER_22_65
*843 FILLER_22_73
*844 FILLER_22_80
*845 FILLER_22_91
*846 FILLER_23_100
*847 FILLER_23_113
*848 FILLER_23_125
*849 FILLER_23_13
*850 FILLER_23_137
*851 FILLER_23_149
*852 FILLER_23_161
*853 FILLER_23_167
*854 FILLER_23_169
*855 FILLER_23_17
*856 FILLER_23_181
*857 FILLER_23_193
*858 FILLER_23_205
*859 FILLER_23_217
*860 FILLER_23_22
*861 FILLER_23_223
*862 FILLER_23_225
*863 FILLER_23_237
*864 FILLER_23_249
*865 FILLER_23_26
*866 FILLER_23_261
*867 FILLER_23_273
*868 FILLER_23_279
*869 FILLER_23_281
*870 FILLER_23_293
*871 FILLER_23_3
*872 FILLER_23_32
*873 FILLER_23_36
*874 FILLER_23_40
*875 FILLER_23_52
*876 FILLER_23_57
*877 FILLER_23_63
*878 FILLER_23_72
*879 FILLER_23_80
*880 FILLER_23_88
*881 FILLER_24_10
*882 FILLER_24_109
*883 FILLER_24_121
*884 FILLER_24_133
*885 FILLER_24_139
*886 FILLER_24_141
*887 FILLER_24_153
*888 FILLER_24_165
*889 FILLER_24_177
*890 FILLER_24_189
*891 FILLER_24_195
*892 FILLER_24_197
*893 FILLER_24_209
*894 FILLER_24_221
*895 FILLER_24_233
*896 FILLER_24_24
*897 FILLER_24_245
*898 FILLER_24_251
*899 FILLER_24_253
*900 FILLER_24_265
*901 FILLER_24_277
*902 FILLER_24_289
*903 FILLER_24_297
*904 FILLER_24_3
*905 FILLER_24_34
*906 FILLER_24_48
*907 FILLER_24_59
*908 FILLER_24_73
*909 FILLER_24_81
*910 FILLER_24_85
*911 FILLER_24_97
*912 FILLER_25_103
*913 FILLER_25_111
*914 FILLER_25_113
*915 FILLER_25_125
*916 FILLER_25_13
*917 FILLER_25_137
*918 FILLER_25_149
*919 FILLER_25_161
*920 FILLER_25_167
*921 FILLER_25_169
*922 FILLER_25_181
*923 FILLER_25_193
*924 FILLER_25_205
*925 FILLER_25_217
*926 FILLER_25_223
*927 FILLER_25_225
*928 FILLER_25_237
*929 FILLER_25_249
*930 FILLER_25_261
*931 FILLER_25_27
*932 FILLER_25_273
*933 FILLER_25_279
*934 FILLER_25_281
*935 FILLER_25_293
*936 FILLER_25_3
*937 FILLER_25_52
*938 FILLER_25_67
*939 FILLER_25_79
*940 FILLER_25_91
*941 FILLER_26_109
*942 FILLER_26_11
*943 FILLER_26_121
*944 FILLER_26_133
*945 FILLER_26_139
*946 FILLER_26_141
*947 FILLER_26_153
*948 FILLER_26_165
*949 FILLER_26_177
*950 FILLER_26_189
*951 FILLER_26_195
*952 FILLER_26_197
*953 FILLER_26_20
*954 FILLER_26_209
*955 FILLER_26_221
*956 FILLER_26_233
*957 FILLER_26_245
*958 FILLER_26_251
*959 FILLER_26_253
*960 FILLER_26_265
*961 FILLER_26_277
*962 FILLER_26_289
*963 FILLER_26_297
*964 FILLER_26_3
*965 FILLER_26_37
*966 FILLER_26_49
*967 FILLER_26_68
*968 FILLER_26_80
*969 FILLER_26_85
*970 FILLER_26_97
*971 FILLER_27_101
*972 FILLER_27_109
*973 FILLER_27_113
*974 FILLER_27_125
*975 FILLER_27_13
*976 FILLER_27_137
*977 FILLER_27_149
*978 FILLER_27_161
*979 FILLER_27_167
*980 FILLER_27_169
*981 FILLER_27_181
*982 FILLER_27_193
*983 FILLER_27_20
*984 FILLER_27_205
*985 FILLER_27_217
*986 FILLER_27_223
*987 FILLER_27_225
*988 FILLER_27_237
*989 FILLER_27_249
*990 FILLER_27_261
*991 FILLER_27_273
*992 FILLER_27_279
*993 FILLER_27_281
*994 FILLER_27_293
*995 FILLER_27_31
*996 FILLER_27_43
*997 FILLER_27_47
*998 FILLER_27_52
*999 FILLER_27_57
*1000 FILLER_27_68
*1001 FILLER_27_77
*1002 FILLER_27_89
*1003 FILLER_28_109
*1004 FILLER_28_121
*1005 FILLER_28_133
*1006 FILLER_28_139
*1007 FILLER_28_14
*1008 FILLER_28_141
*1009 FILLER_28_153
*1010 FILLER_28_165
*1011 FILLER_28_177
*1012 FILLER_28_189
*1013 FILLER_28_195
*1014 FILLER_28_197
*1015 FILLER_28_209
*1016 FILLER_28_221
*1017 FILLER_28_233
*1018 FILLER_28_245
*1019 FILLER_28_251
*1020 FILLER_28_253
*1021 FILLER_28_26
*1022 FILLER_28_265
*1023 FILLER_28_277
*1024 FILLER_28_289
*1025 FILLER_28_29
*1026 FILLER_28_297
*1027 FILLER_28_3
*1028 FILLER_28_39
*1029 FILLER_28_52
*1030 FILLER_28_60
*1031 FILLER_28_66
*1032 FILLER_28_7
*1033 FILLER_28_75
*1034 FILLER_28_83
*1035 FILLER_28_85
*1036 FILLER_28_97
*1037 FILLER_29_100
*1038 FILLER_29_113
*1039 FILLER_29_125
*1040 FILLER_29_137
*1041 FILLER_29_149
*1042 FILLER_29_15
*1043 FILLER_29_161
*1044 FILLER_29_167
*1045 FILLER_29_169
*1046 FILLER_29_181
*1047 FILLER_29_193
*1048 FILLER_29_205
*1049 FILLER_29_217
*1050 FILLER_29_223
*1051 FILLER_29_225
*1052 FILLER_29_237
*1053 FILLER_29_249
*1054 FILLER_29_261
*1055 FILLER_29_27
*1056 FILLER_29_273
*1057 FILLER_29_279
*1058 FILLER_29_281
*1059 FILLER_29_293
*1060 FILLER_29_3
*1061 FILLER_29_37
*1062 FILLER_29_45
*1063 FILLER_29_51
*1064 FILLER_29_55
*1065 FILLER_29_64
*1066 FILLER_29_76
*1067 FILLER_29_88
*1068 FILLER_2_101
*1069 FILLER_2_113
*1070 FILLER_2_125
*1071 FILLER_2_137
*1072 FILLER_2_141
*1073 FILLER_2_153
*1074 FILLER_2_165
*1075 FILLER_2_177
*1076 FILLER_2_189
*1077 FILLER_2_195
*1078 FILLER_2_197
*1079 FILLER_2_209
*1080 FILLER_2_21
*1081 FILLER_2_221
*1082 FILLER_2_233
*1083 FILLER_2_245
*1084 FILLER_2_251
*1085 FILLER_2_253
*1086 FILLER_2_265
*1087 FILLER_2_27
*1088 FILLER_2_277
*1089 FILLER_2_289
*1090 FILLER_2_29
*1091 FILLER_2_297
*1092 FILLER_2_3
*1093 FILLER_2_41
*1094 FILLER_2_65
*1095 FILLER_2_73
*1096 FILLER_2_81
*1097 FILLER_2_85
*1098 FILLER_2_93
*1099 FILLER_30_109
*1100 FILLER_30_121
*1101 FILLER_30_133
*1102 FILLER_30_139
*1103 FILLER_30_141
*1104 FILLER_30_15
*1105 FILLER_30_153
*1106 FILLER_30_165
*1107 FILLER_30_177
*1108 FILLER_30_189
*1109 FILLER_30_195
*1110 FILLER_30_197
*1111 FILLER_30_209
*1112 FILLER_30_221
*1113 FILLER_30_233
*1114 FILLER_30_24
*1115 FILLER_30_245
*1116 FILLER_30_251
*1117 FILLER_30_253
*1118 FILLER_30_265
*1119 FILLER_30_277
*1120 FILLER_30_289
*1121 FILLER_30_29
*1122 FILLER_30_297
*1123 FILLER_30_3
*1124 FILLER_30_41
*1125 FILLER_30_53
*1126 FILLER_30_65
*1127 FILLER_30_77
*1128 FILLER_30_83
*1129 FILLER_30_85
*1130 FILLER_30_97
*1131 FILLER_31_102
*1132 FILLER_31_110
*1133 FILLER_31_113
*1134 FILLER_31_125
*1135 FILLER_31_137
*1136 FILLER_31_149
*1137 FILLER_31_161
*1138 FILLER_31_167
*1139 FILLER_31_169
*1140 FILLER_31_18
*1141 FILLER_31_181
*1142 FILLER_31_193
*1143 FILLER_31_205
*1144 FILLER_31_217
*1145 FILLER_31_223
*1146 FILLER_31_225
*1147 FILLER_31_237
*1148 FILLER_31_249
*1149 FILLER_31_261
*1150 FILLER_31_27
*1151 FILLER_31_273
*1152 FILLER_31_279
*1153 FILLER_31_281
*1154 FILLER_31_293
*1155 FILLER_31_3
*1156 FILLER_31_41
*1157 FILLER_31_53
*1158 FILLER_31_57
*1159 FILLER_31_66
*1160 FILLER_31_7
*1161 FILLER_31_78
*1162 FILLER_31_90
*1163 FILLER_32_109
*1164 FILLER_32_121
*1165 FILLER_32_133
*1166 FILLER_32_139
*1167 FILLER_32_141
*1168 FILLER_32_15
*1169 FILLER_32_153
*1170 FILLER_32_165
*1171 FILLER_32_177
*1172 FILLER_32_189
*1173 FILLER_32_195
*1174 FILLER_32_197
*1175 FILLER_32_209
*1176 FILLER_32_221
*1177 FILLER_32_233
*1178 FILLER_32_245
*1179 FILLER_32_251
*1180 FILLER_32_253
*1181 FILLER_32_265
*1182 FILLER_32_27
*1183 FILLER_32_277
*1184 FILLER_32_289
*1185 FILLER_32_29
*1186 FILLER_32_297
*1187 FILLER_32_3
*1188 FILLER_32_43
*1189 FILLER_32_55
*1190 FILLER_32_66
*1191 FILLER_32_78
*1192 FILLER_32_85
*1193 FILLER_32_97
*1194 FILLER_33_101
*1195 FILLER_33_108
*1196 FILLER_33_113
*1197 FILLER_33_125
*1198 FILLER_33_137
*1199 FILLER_33_149
*1200 FILLER_33_15
*1201 FILLER_33_161
*1202 FILLER_33_167
*1203 FILLER_33_169
*1204 FILLER_33_181
*1205 FILLER_33_193
*1206 FILLER_33_205
*1207 FILLER_33_217
*1208 FILLER_33_223
*1209 FILLER_33_225
*1210 FILLER_33_237
*1211 FILLER_33_249
*1212 FILLER_33_261
*1213 FILLER_33_27
*1214 FILLER_33_273
*1215 FILLER_33_279
*1216 FILLER_33_281
*1217 FILLER_33_293
*1218 FILLER_33_3
*1219 FILLER_33_43
*1220 FILLER_33_55
*1221 FILLER_33_57
*1222 FILLER_33_69
*1223 FILLER_33_81
*1224 FILLER_33_93
*1225 FILLER_34_105
*1226 FILLER_34_110
*1227 FILLER_34_122
*1228 FILLER_34_134
*1229 FILLER_34_141
*1230 FILLER_34_15
*1231 FILLER_34_153
*1232 FILLER_34_165
*1233 FILLER_34_177
*1234 FILLER_34_189
*1235 FILLER_34_195
*1236 FILLER_34_197
*1237 FILLER_34_209
*1238 FILLER_34_221
*1239 FILLER_34_233
*1240 FILLER_34_245
*1241 FILLER_34_251
*1242 FILLER_34_253
*1243 FILLER_34_265
*1244 FILLER_34_27
*1245 FILLER_34_277
*1246 FILLER_34_289
*1247 FILLER_34_29
*1248 FILLER_34_297
*1249 FILLER_34_3
*1250 FILLER_34_41
*1251 FILLER_34_47
*1252 FILLER_34_55
*1253 FILLER_34_63
*1254 FILLER_34_74
*1255 FILLER_34_82
*1256 FILLER_34_85
*1257 FILLER_34_97
*1258 FILLER_35_106
*1259 FILLER_35_113
*1260 FILLER_35_125
*1261 FILLER_35_137
*1262 FILLER_35_149
*1263 FILLER_35_15
*1264 FILLER_35_161
*1265 FILLER_35_167
*1266 FILLER_35_169
*1267 FILLER_35_181
*1268 FILLER_35_193
*1269 FILLER_35_205
*1270 FILLER_35_217
*1271 FILLER_35_223
*1272 FILLER_35_225
*1273 FILLER_35_237
*1274 FILLER_35_249
*1275 FILLER_35_261
*1276 FILLER_35_273
*1277 FILLER_35_279
*1278 FILLER_35_281
*1279 FILLER_35_293
*1280 FILLER_35_3
*1281 FILLER_35_32
*1282 FILLER_35_38
*1283 FILLER_35_46
*1284 FILLER_35_54
*1285 FILLER_35_64
*1286 FILLER_35_76
*1287 FILLER_35_94
*1288 FILLER_36_104
*1289 FILLER_36_116
*1290 FILLER_36_128
*1291 FILLER_36_141
*1292 FILLER_36_15
*1293 FILLER_36_153
*1294 FILLER_36_165
*1295 FILLER_36_177
*1296 FILLER_36_189
*1297 FILLER_36_195
*1298 FILLER_36_197
*1299 FILLER_36_209
*1300 FILLER_36_221
*1301 FILLER_36_233
*1302 FILLER_36_245
*1303 FILLER_36_251
*1304 FILLER_36_253
*1305 FILLER_36_265
*1306 FILLER_36_27
*1307 FILLER_36_277
*1308 FILLER_36_289
*1309 FILLER_36_29
*1310 FILLER_36_297
*1311 FILLER_36_3
*1312 FILLER_36_37
*1313 FILLER_36_45
*1314 FILLER_36_57
*1315 FILLER_36_61
*1316 FILLER_36_69
*1317 FILLER_36_73
*1318 FILLER_36_80
*1319 FILLER_36_85
*1320 FILLER_37_109
*1321 FILLER_37_113
*1322 FILLER_37_125
*1323 FILLER_37_137
*1324 FILLER_37_149
*1325 FILLER_37_161
*1326 FILLER_37_167
*1327 FILLER_37_169
*1328 FILLER_37_18
*1329 FILLER_37_181
*1330 FILLER_37_193
*1331 FILLER_37_205
*1332 FILLER_37_217
*1333 FILLER_37_223
*1334 FILLER_37_225
*1335 FILLER_37_237
*1336 FILLER_37_249
*1337 FILLER_37_261
*1338 FILLER_37_273
*1339 FILLER_37_279
*1340 FILLER_37_281
*1341 FILLER_37_293
*1342 FILLER_37_3
*1343 FILLER_37_36
*1344 FILLER_37_49
*1345 FILLER_37_55
*1346 FILLER_37_63
*1347 FILLER_37_76
*1348 FILLER_37_85
*1349 FILLER_37_97
*1350 FILLER_38_105
*1351 FILLER_38_117
*1352 FILLER_38_129
*1353 FILLER_38_137
*1354 FILLER_38_141
*1355 FILLER_38_15
*1356 FILLER_38_153
*1357 FILLER_38_165
*1358 FILLER_38_177
*1359 FILLER_38_189
*1360 FILLER_38_195
*1361 FILLER_38_197
*1362 FILLER_38_209
*1363 FILLER_38_221
*1364 FILLER_38_233
*1365 FILLER_38_24
*1366 FILLER_38_245
*1367 FILLER_38_251
*1368 FILLER_38_253
*1369 FILLER_38_265
*1370 FILLER_38_277
*1371 FILLER_38_289
*1372 FILLER_38_29
*1373 FILLER_38_297
*1374 FILLER_38_3
*1375 FILLER_38_35
*1376 FILLER_38_46
*1377 FILLER_38_59
*1378 FILLER_38_66
*1379 FILLER_38_70
*1380 FILLER_38_80
*1381 FILLER_38_93
*1382 FILLER_39_106
*1383 FILLER_39_119
*1384 FILLER_39_131
*1385 FILLER_39_143
*1386 FILLER_39_155
*1387 FILLER_39_167
*1388 FILLER_39_169
*1389 FILLER_39_181
*1390 FILLER_39_193
*1391 FILLER_39_205
*1392 FILLER_39_21
*1393 FILLER_39_217
*1394 FILLER_39_223
*1395 FILLER_39_225
*1396 FILLER_39_237
*1397 FILLER_39_249
*1398 FILLER_39_25
*1399 FILLER_39_261
*1400 FILLER_39_273
*1401 FILLER_39_279
*1402 FILLER_39_281
*1403 FILLER_39_29
*1404 FILLER_39_293
*1405 FILLER_39_3
*1406 FILLER_39_44
*1407 FILLER_39_51
*1408 FILLER_39_55
*1409 FILLER_39_63
*1410 FILLER_39_74
*1411 FILLER_39_98
*1412 FILLER_3_102
*1413 FILLER_3_108
*1414 FILLER_3_118
*1415 FILLER_3_130
*1416 FILLER_3_142
*1417 FILLER_3_154
*1418 FILLER_3_166
*1419 FILLER_3_169
*1420 FILLER_3_181
*1421 FILLER_3_193
*1422 FILLER_3_20
*1423 FILLER_3_205
*1424 FILLER_3_217
*1425 FILLER_3_223
*1426 FILLER_3_225
*1427 FILLER_3_237
*1428 FILLER_3_249
*1429 FILLER_3_261
*1430 FILLER_3_273
*1431 FILLER_3_279
*1432 FILLER_3_281
*1433 FILLER_3_293
*1434 FILLER_3_3
*1435 FILLER_3_32
*1436 FILLER_3_50
*1437 FILLER_3_73
*1438 FILLER_3_85
*1439 FILLER_3_89
*1440 FILLER_3_94
*1441 FILLER_40_103
*1442 FILLER_40_115
*1443 FILLER_40_127
*1444 FILLER_40_139
*1445 FILLER_40_141
*1446 FILLER_40_153
*1447 FILLER_40_165
*1448 FILLER_40_17
*1449 FILLER_40_177
*1450 FILLER_40_189
*1451 FILLER_40_195
*1452 FILLER_40_197
*1453 FILLER_40_209
*1454 FILLER_40_221
*1455 FILLER_40_233
*1456 FILLER_40_245
*1457 FILLER_40_25
*1458 FILLER_40_251
*1459 FILLER_40_253
*1460 FILLER_40_265
*1461 FILLER_40_277
*1462 FILLER_40_289
*1463 FILLER_40_297
*1464 FILLER_40_3
*1465 FILLER_40_37
*1466 FILLER_40_43
*1467 FILLER_40_47
*1468 FILLER_40_55
*1469 FILLER_40_63
*1470 FILLER_40_70
*1471 FILLER_40_76
*1472 FILLER_40_80
*1473 FILLER_40_9
*1474 FILLER_40_92
*1475 FILLER_41_106
*1476 FILLER_41_121
*1477 FILLER_41_133
*1478 FILLER_41_145
*1479 FILLER_41_157
*1480 FILLER_41_165
*1481 FILLER_41_169
*1482 FILLER_41_18
*1483 FILLER_41_181
*1484 FILLER_41_193
*1485 FILLER_41_205
*1486 FILLER_41_217
*1487 FILLER_41_223
*1488 FILLER_41_225
*1489 FILLER_41_237
*1490 FILLER_41_249
*1491 FILLER_41_261
*1492 FILLER_41_273
*1493 FILLER_41_279
*1494 FILLER_41_281
*1495 FILLER_41_293
*1496 FILLER_41_30
*1497 FILLER_41_38
*1498 FILLER_41_50
*1499 FILLER_41_67
*1500 FILLER_41_7
*1501 FILLER_41_75
*1502 FILLER_41_89
*1503 FILLER_41_97
*1504 FILLER_42_114
*1505 FILLER_42_126
*1506 FILLER_42_138
*1507 FILLER_42_141
*1508 FILLER_42_15
*1509 FILLER_42_153
*1510 FILLER_42_165
*1511 FILLER_42_177
*1512 FILLER_42_189
*1513 FILLER_42_195
*1514 FILLER_42_197
*1515 FILLER_42_209
*1516 FILLER_42_221
*1517 FILLER_42_233
*1518 FILLER_42_245
*1519 FILLER_42_251
*1520 FILLER_42_253
*1521 FILLER_42_265
*1522 FILLER_42_27
*1523 FILLER_42_277
*1524 FILLER_42_289
*1525 FILLER_42_297
*1526 FILLER_42_3
*1527 FILLER_42_38
*1528 FILLER_42_46
*1529 FILLER_42_54
*1530 FILLER_42_62
*1531 FILLER_42_66
*1532 FILLER_42_73
*1533 FILLER_42_80
*1534 FILLER_42_91
*1535 FILLER_42_97
*1536 FILLER_43_100
*1537 FILLER_43_107
*1538 FILLER_43_11
*1539 FILLER_43_111
*1540 FILLER_43_121
*1541 FILLER_43_133
*1542 FILLER_43_145
*1543 FILLER_43_15
*1544 FILLER_43_157
*1545 FILLER_43_165
*1546 FILLER_43_169
*1547 FILLER_43_181
*1548 FILLER_43_193
*1549 FILLER_43_205
*1550 FILLER_43_217
*1551 FILLER_43_223
*1552 FILLER_43_225
*1553 FILLER_43_237
*1554 FILLER_43_249
*1555 FILLER_43_261
*1556 FILLER_43_27
*1557 FILLER_43_273
*1558 FILLER_43_279
*1559 FILLER_43_281
*1560 FILLER_43_293
*1561 FILLER_43_3
*1562 FILLER_43_31
*1563 FILLER_43_39
*1564 FILLER_43_46
*1565 FILLER_43_54
*1566 FILLER_43_57
*1567 FILLER_43_63
*1568 FILLER_43_77
*1569 FILLER_43_81
*1570 FILLER_43_86
*1571 FILLER_44_102
*1572 FILLER_44_110
*1573 FILLER_44_117
*1574 FILLER_44_12
*1575 FILLER_44_129
*1576 FILLER_44_137
*1577 FILLER_44_141
*1578 FILLER_44_153
*1579 FILLER_44_165
*1580 FILLER_44_177
*1581 FILLER_44_18
*1582 FILLER_44_189
*1583 FILLER_44_195
*1584 FILLER_44_197
*1585 FILLER_44_209
*1586 FILLER_44_22
*1587 FILLER_44_221
*1588 FILLER_44_233
*1589 FILLER_44_245
*1590 FILLER_44_251
*1591 FILLER_44_253
*1592 FILLER_44_265
*1593 FILLER_44_277
*1594 FILLER_44_289
*1595 FILLER_44_297
*1596 FILLER_44_35
*1597 FILLER_44_43
*1598 FILLER_44_53
*1599 FILLER_44_62
*1600 FILLER_44_76
*1601 FILLER_44_92
*1602 FILLER_45_102
*1603 FILLER_45_110
*1604 FILLER_45_113
*1605 FILLER_45_121
*1606 FILLER_45_133
*1607 FILLER_45_145
*1608 FILLER_45_15
*1609 FILLER_45_157
*1610 FILLER_45_165
*1611 FILLER_45_169
*1612 FILLER_45_181
*1613 FILLER_45_19
*1614 FILLER_45_193
*1615 FILLER_45_205
*1616 FILLER_45_217
*1617 FILLER_45_223
*1618 FILLER_45_225
*1619 FILLER_45_237
*1620 FILLER_45_249
*1621 FILLER_45_261
*1622 FILLER_45_273
*1623 FILLER_45_279
*1624 FILLER_45_281
*1625 FILLER_45_293
*1626 FILLER_45_3
*1627 FILLER_45_30
*1628 FILLER_45_42
*1629 FILLER_45_52
*1630 FILLER_45_64
*1631 FILLER_45_80
*1632 FILLER_45_94
*1633 FILLER_46_102
*1634 FILLER_46_106
*1635 FILLER_46_123
*1636 FILLER_46_135
*1637 FILLER_46_139
*1638 FILLER_46_141
*1639 FILLER_46_153
*1640 FILLER_46_16
*1641 FILLER_46_165
*1642 FILLER_46_177
*1643 FILLER_46_189
*1644 FILLER_46_195
*1645 FILLER_46_197
*1646 FILLER_46_209
*1647 FILLER_46_221
*1648 FILLER_46_233
*1649 FILLER_46_24
*1650 FILLER_46_245
*1651 FILLER_46_251
*1652 FILLER_46_253
*1653 FILLER_46_265
*1654 FILLER_46_277
*1655 FILLER_46_289
*1656 FILLER_46_297
*1657 FILLER_46_3
*1658 FILLER_46_37
*1659 FILLER_46_43
*1660 FILLER_46_54
*1661 FILLER_46_66
*1662 FILLER_46_75
*1663 FILLER_46_83
*1664 FILLER_46_93
*1665 FILLER_47_108
*1666 FILLER_47_113
*1667 FILLER_47_121
*1668 FILLER_47_128
*1669 FILLER_47_140
*1670 FILLER_47_15
*1671 FILLER_47_152
*1672 FILLER_47_164
*1673 FILLER_47_169
*1674 FILLER_47_181
*1675 FILLER_47_193
*1676 FILLER_47_205
*1677 FILLER_47_217
*1678 FILLER_47_22
*1679 FILLER_47_223
*1680 FILLER_47_225
*1681 FILLER_47_237
*1682 FILLER_47_249
*1683 FILLER_47_261
*1684 FILLER_47_273
*1685 FILLER_47_279
*1686 FILLER_47_281
*1687 FILLER_47_293
*1688 FILLER_47_3
*1689 FILLER_47_33
*1690 FILLER_47_41
*1691 FILLER_47_49
*1692 FILLER_47_55
*1693 FILLER_47_64
*1694 FILLER_47_74
*1695 FILLER_47_83
*1696 FILLER_48_101
*1697 FILLER_48_109
*1698 FILLER_48_117
*1699 FILLER_48_129
*1700 FILLER_48_137
*1701 FILLER_48_141
*1702 FILLER_48_153
*1703 FILLER_48_165
*1704 FILLER_48_177
*1705 FILLER_48_189
*1706 FILLER_48_19