*SPEF "ieee 1481-1999"
*DESIGN "regymm_mcpi"
*DATE "11:11:11 Fri 11 11, 1111"
*VENDOR "OpenRCX"
*PROGRAM "Parallel Extraction"
*VERSION "1.0"
*DESIGN_FLOW "NAME_SCOPE LOCAL" "PIN_CAP NONE"
*DIVIDER /
*DELIMITER :
*BUS_DELIMITER []
*T_UNIT 1 NS
*C_UNIT 1 PF
*R_UNIT 1 OHM
*L_UNIT 1 HENRY

*NAME_MAP
*1 io_in[0]
*2 io_in[1]
*3 io_in[2]
*4 io_in[3]
*5 io_in[4]
*6 io_in[5]
*7 io_in[6]
*8 io_in[7]
*9 io_out[0]
*10 io_out[1]
*11 io_out[2]
*12 io_out[3]
*13 io_out[4]
*14 io_out[5]
*15 io_out[6]
*16 io_out[7]
*19 _000_
*20 _001_
*21 _002_
*22 _003_
*23 _004_
*24 _005_
*25 _006_
*26 _007_
*27 _008_
*28 _009_
*29 _010_
*30 _011_
*31 _012_
*32 _013_
*33 _014_
*34 _015_
*35 _016_
*36 _017_
*37 _018_
*38 _019_
*39 _020_
*40 _021_
*41 _022_
*42 _023_
*43 _024_
*44 _025_
*45 _026_
*46 _027_
*47 _028_
*48 _029_
*49 _030_
*50 _031_
*51 _032_
*52 _033_
*53 _034_
*54 _035_
*55 _036_
*56 _037_
*57 _038_
*58 _039_
*59 _040_
*60 _041_
*61 _042_
*62 _043_
*63 _044_
*64 _045_
*65 _046_
*66 _047_
*67 _048_
*68 _049_
*69 _050_
*70 _051_
*71 _052_
*72 _053_
*73 _054_
*74 _055_
*75 _056_
*76 _057_
*77 _058_
*78 _059_
*79 _060_
*80 _061_
*81 _062_
*82 _063_
*83 _064_
*84 _065_
*85 _066_
*86 _067_
*87 _068_
*88 _069_
*89 _070_
*90 _071_
*91 _072_
*92 _073_
*93 _074_
*94 _075_
*95 _076_
*96 _077_
*97 _078_
*98 _079_
*99 _080_
*100 _081_
*101 _082_
*102 _083_
*103 _084_
*104 _085_
*105 _086_
*106 _087_
*107 _088_
*108 _089_
*109 _090_
*110 _091_
*111 _092_
*112 _093_
*113 _094_
*114 _095_
*115 _096_
*116 _097_
*117 _098_
*118 _099_
*119 _100_
*120 _101_
*121 _102_
*122 _103_
*123 _104_
*124 _105_
*125 _106_
*126 _107_
*127 _108_
*128 _109_
*129 _110_
*130 _111_
*131 _112_
*132 _113_
*133 _114_
*134 _115_
*135 _116_
*136 _117_
*137 _118_
*138 _119_
*139 _120_
*140 _121_
*141 _122_
*142 _123_
*143 _124_
*144 _125_
*145 _126_
*146 _127_
*147 _128_
*148 _129_
*149 _130_
*150 _131_
*151 _132_
*152 _133_
*153 _134_
*154 _135_
*155 _136_
*156 _137_
*157 _138_
*158 _139_
*159 _140_
*160 _141_
*161 _142_
*162 _143_
*163 _144_
*164 _145_
*165 _146_
*166 _147_
*167 _148_
*168 _149_
*169 _150_
*170 _151_
*171 _152_
*172 _153_
*173 _154_
*174 _155_
*175 _156_
*176 _157_
*177 _158_
*178 _159_
*179 _160_
*180 _161_
*181 _162_
*182 _163_
*183 _164_
*184 _165_
*185 _166_
*186 _167_
*187 _168_
*188 _169_
*189 _170_
*190 _171_
*191 _172_
*192 _173_
*193 _174_
*194 _175_
*195 _176_
*196 _177_
*197 _178_
*198 _179_
*199 _180_
*200 _181_
*201 _182_
*202 _183_
*203 _184_
*204 _185_
*205 _186_
*206 _187_
*207 _188_
*208 _189_
*209 _190_
*210 _191_
*211 _192_
*212 _193_
*213 _194_
*214 _195_
*215 _196_
*216 _197_
*217 _198_
*218 _199_
*219 _200_
*220 _201_
*221 _202_
*222 _203_
*223 _204_
*224 _205_
*225 _206_
*226 _207_
*227 _208_
*228 _209_
*229 _210_
*230 _211_
*231 _212_
*232 _213_
*233 _214_
*234 _215_
*235 _216_
*236 _217_
*237 _218_
*238 _219_
*239 _220_
*240 _221_
*241 _222_
*242 _223_
*243 _224_
*244 _225_
*245 _226_
*246 _227_
*247 _228_
*248 _229_
*249 _230_
*250 _231_
*251 _232_
*252 _233_
*253 _234_
*254 _235_
*255 _236_
*256 _237_
*257 _238_
*258 _239_
*259 _240_
*260 _241_
*261 _242_
*262 _243_
*263 _244_
*264 _245_
*265 _246_
*266 _247_
*267 _248_
*268 _249_
*269 _250_
*270 _251_
*271 _252_
*272 _253_
*273 _254_
*274 _255_
*275 _256_
*276 _257_
*277 _258_
*278 _259_
*279 _260_
*280 _261_
*281 _262_
*282 _263_
*283 _264_
*284 _265_
*285 _266_
*286 _267_
*287 _268_
*288 _269_
*289 _270_
*290 _271_
*291 _272_
*292 _273_
*293 _274_
*294 _275_
*295 _276_
*296 _277_
*297 _278_
*298 _279_
*299 _280_
*300 _281_
*301 _282_
*302 _283_
*303 _284_
*304 _285_
*305 _286_
*306 _287_
*307 _288_
*308 _289_
*309 _290_
*310 _291_
*311 _292_
*312 _293_
*313 _294_
*314 _295_
*315 _296_
*316 _297_
*317 _298_
*318 breg2\[0\]
*319 breg2\[1\]
*320 breg2\[2\]
*321 breg2\[3\]
*322 breg2\[4\]
*323 breg2\[5\]
*324 breg2\[6\]
*325 breg2\[7\]
*326 breg\[0\]
*327 breg\[1\]
*328 breg\[2\]
*329 breg\[3\]
*330 breg\[4\]
*331 breg\[5\]
*332 breg\[6\]
*333 breg\[7\]
*334 breg\[8\]
*335 clknet_0_io_in[0]
*336 clknet_2_0__leaf_io_in[0]
*337 clknet_2_1__leaf_io_in[0]
*338 clknet_2_2__leaf_io_in[0]
*339 clknet_2_3__leaf_io_in[0]
*340 cnt\[0\]
*341 cnt\[1\]
*342 cnt\[2\]
*343 cnt\[3\]
*344 cnt\[4\]
*345 cnt\[5\]
*346 cnt\[6\]
*347 cnt\[7\]
*348 cnt_in\[0\]
*349 cnt_in\[1\]
*350 cnt_in\[2\]
*351 cnt_in\[3\]
*352 cnt_in\[4\]
*353 cnt_in\[5\]
*354 cnt_in\[6\]
*355 cnt_in\[7\]
*356 net1
*357 net2
*358 net3
*359 net4
*360 net5
*361 net6
*362 net7
*363 net8
*364 net9
*365 random\[0\]
*366 random\[1\]
*367 random\[2\]
*368 random\[3\]
*369 random\[4\]
*370 random\[5\]
*371 random\[6\]
*372 random\[7\]
*373 sts\[0\]
*374 sts\[1\]
*375 sts\[2\]
*376 sts\[3\]
*377 x\[0\]
*378 x\[1\]
*379 x\[2\]
*380 x\[3\]
*381 x\[4\]
*382 x\[5\]
*383 x\[6\]
*384 x\[7\]
*385 FILLER_0_109
*386 FILLER_0_113
*387 FILLER_0_125
*388 FILLER_0_137
*389 FILLER_0_141
*390 FILLER_0_15
*391 FILLER_0_153
*392 FILLER_0_165
*393 FILLER_0_169
*394 FILLER_0_181
*395 FILLER_0_193
*396 FILLER_0_197
*397 FILLER_0_209
*398 FILLER_0_221
*399 FILLER_0_225
*400 FILLER_0_237
*401 FILLER_0_249
*402 FILLER_0_253
*403 FILLER_0_265
*404 FILLER_0_27
*405 FILLER_0_277
*406 FILLER_0_281
*407 FILLER_0_29
*408 FILLER_0_293
*409 FILLER_0_3
*410 FILLER_0_41
*411 FILLER_0_53
*412 FILLER_0_65
*413 FILLER_0_77
*414 FILLER_0_83
*415 FILLER_0_85
*416 FILLER_0_97
*417 FILLER_10_104
*418 FILLER_10_112
*419 FILLER_10_121
*420 FILLER_10_132
*421 FILLER_10_141
*422 FILLER_10_15
*423 FILLER_10_153
*424 FILLER_10_165
*425 FILLER_10_177
*426 FILLER_10_189
*427 FILLER_10_195
*428 FILLER_10_197
*429 FILLER_10_209
*430 FILLER_10_221
*431 FILLER_10_233
*432 FILLER_10_24
*433 FILLER_10_245
*434 FILLER_10_251
*435 FILLER_10_253
*436 FILLER_10_265
*437 FILLER_10_277
*438 FILLER_10_289
*439 FILLER_10_297
*440 FILLER_10_3
*441 FILLER_10_45
*442 FILLER_10_53
*443 FILLER_10_66
*444 FILLER_10_70
*445 FILLER_10_76
*446 FILLER_10_90
*447 FILLER_11_101
*448 FILLER_11_108
*449 FILLER_11_113
*450 FILLER_11_123
*451 FILLER_11_129
*452 FILLER_11_135
*453 FILLER_11_142
*454 FILLER_11_154
*455 FILLER_11_166
*456 FILLER_11_169
*457 FILLER_11_181
*458 FILLER_11_193
*459 FILLER_11_205
*460 FILLER_11_217
*461 FILLER_11_223
*462 FILLER_11_225
*463 FILLER_11_237
*464 FILLER_11_249
*465 FILLER_11_261
*466 FILLER_11_273
*467 FILLER_11_279
*468 FILLER_11_281
*469 FILLER_11_293
*470 FILLER_11_3
*471 FILLER_11_31
*472 FILLER_11_52
*473 FILLER_11_62
*474 FILLER_11_71
*475 FILLER_11_85
*476 FILLER_11_93
*477 FILLER_12_102
*478 FILLER_12_107
*479 FILLER_12_113
*480 FILLER_12_120
*481 FILLER_12_128
*482 FILLER_12_136
*483 FILLER_12_14
*484 FILLER_12_148
*485 FILLER_12_160
*486 FILLER_12_172
*487 FILLER_12_184
*488 FILLER_12_197
*489 FILLER_12_209
*490 FILLER_12_221
*491 FILLER_12_233
*492 FILLER_12_24
*493 FILLER_12_245
*494 FILLER_12_251
*495 FILLER_12_253
*496 FILLER_12_265
*497 FILLER_12_277
*498 FILLER_12_289
*499 FILLER_12_29
*500 FILLER_12_297
*501 FILLER_12_37
*502 FILLER_12_49
*503 FILLER_12_57
*504 FILLER_12_6
*505 FILLER_12_68
*506 FILLER_12_74
*507 FILLER_12_80
*508 FILLER_12_90
*509 FILLER_12_94
*510 FILLER_12_98
*511 FILLER_13_110
*512 FILLER_13_123
*513 FILLER_13_133
*514 FILLER_13_145
*515 FILLER_13_157
*516 FILLER_13_165
*517 FILLER_13_169
*518 FILLER_13_181
*519 FILLER_13_193
*520 FILLER_13_205
*521 FILLER_13_217
*522 FILLER_13_223
*523 FILLER_13_225
*524 FILLER_13_237
*525 FILLER_13_24
*526 FILLER_13_249
*527 FILLER_13_261
*528 FILLER_13_273
*529 FILLER_13_279
*530 FILLER_13_281
*531 FILLER_13_293
*532 FILLER_13_3
*533 FILLER_13_31
*534 FILLER_13_51
*535 FILLER_13_55
*536 FILLER_13_57
*537 FILLER_13_67
*538 FILLER_13_7
*539 FILLER_13_75
*540 FILLER_13_87
*541 FILLER_13_98
*542 FILLER_14_100
*543 FILLER_14_111
*544 FILLER_14_119
*545 FILLER_14_127
*546 FILLER_14_139
*547 FILLER_14_141
*548 FILLER_14_15
*549 FILLER_14_153
*550 FILLER_14_165
*551 FILLER_14_177
*552 FILLER_14_189
*553 FILLER_14_195
*554 FILLER_14_197
*555 FILLER_14_209
*556 FILLER_14_221
*557 FILLER_14_233
*558 FILLER_14_245
*559 FILLER_14_251
*560 FILLER_14_253
*561 FILLER_14_265
*562 FILLER_14_27
*563 FILLER_14_277
*564 FILLER_14_289
*565 FILLER_14_297
*566 FILLER_14_3
*567 FILLER_14_38
*568 FILLER_14_46
*569 FILLER_14_57
*570 FILLER_14_71
*571 FILLER_14_80
*572 FILLER_14_85
*573 FILLER_14_89
*574 FILLER_15_103
*575 FILLER_15_111
*576 FILLER_15_113
*577 FILLER_15_117
*578 FILLER_15_124
*579 FILLER_15_136
*580 FILLER_15_148
*581 FILLER_15_160
*582 FILLER_15_169
*583 FILLER_15_18
*584 FILLER_15_181
*585 FILLER_15_193
*586 FILLER_15_205
*587 FILLER_15_217
*588 FILLER_15_223
*589 FILLER_15_225
*590 FILLER_15_237
*591 FILLER_15_249
*592 FILLER_15_261
*593 FILLER_15_273
*594 FILLER_15_279
*595 FILLER_15_281
*596 FILLER_15_293
*597 FILLER_15_3
*598 FILLER_15_38
*599 FILLER_15_46
*600 FILLER_15_52
*601 FILLER_15_66
*602 FILLER_15_80
*603 FILLER_15_89
*604 FILLER_15_96
*605 FILLER_16_101
*606 FILLER_16_108
*607 FILLER_16_115
*608 FILLER_16_123
*609 FILLER_16_128
*610 FILLER_16_148
*611 FILLER_16_15
*612 FILLER_16_160
*613 FILLER_16_172
*614 FILLER_16_184
*615 FILLER_16_197
*616 FILLER_16_209
*617 FILLER_16_221
*618 FILLER_16_233
*619 FILLER_16_245
*620 FILLER_16_251
*621 FILLER_16_253
*622 FILLER_16_265
*623 FILLER_16_27
*624 FILLER_16_277
*625 FILLER_16_289
*626 FILLER_16_29
*627 FILLER_16_297
*628 FILLER_16_3
*629 FILLER_16_41
*630 FILLER_16_65
*631 FILLER_16_80
*632 FILLER_16_92
*633 FILLER_17_103
*634 FILLER_17_111
*635 FILLER_17_113
*636 FILLER_17_117
*637 FILLER_17_121
*638 FILLER_17_131
*639 FILLER_17_143
*640 FILLER_17_15
*641 FILLER_17_155
*642 FILLER_17_167
*643 FILLER_17_169
*644 FILLER_17_181
*645 FILLER_17_193
*646 FILLER_17_205
*647 FILLER_17_217
*648 FILLER_17_223
*649 FILLER_17_225
*650 FILLER_17_237
*651 FILLER_17_249
*652 FILLER_17_261
*653 FILLER_17_273
*654 FILLER_17_279
*655 FILLER_17_281
*656 FILLER_17_293
*657 FILLER_17_3
*658 FILLER_17_36
*659 FILLER_17_44
*660 FILLER_17_51
*661 FILLER_17_55
*662 FILLER_17_70
*663 FILLER_17_79
*664 FILLER_17_87
*665 FILLER_17_95
*666 FILLER_18_104
*667 FILLER_18_115
*668 FILLER_18_128
*669 FILLER_18_141
*670 FILLER_18_15
*671 FILLER_18_153
*672 FILLER_18_165
*673 FILLER_18_177
*674 FILLER_18_189
*675 FILLER_18_195
*676 FILLER_18_197
*677 FILLER_18_209
*678 FILLER_18_221
*679 FILLER_18_233
*680 FILLER_18_245
*681 FILLER_18_251
*682 FILLER_18_253
*683 FILLER_18_265
*684 FILLER_18_27
*685 FILLER_18_277
*686 FILLER_18_289
*687 FILLER_18_29
*688 FILLER_18_297
*689 FILLER_18_3
*690 FILLER_18_48
*691 FILLER_18_56
*692 FILLER_18_67
*693 FILLER_18_77
*694 FILLER_18_83
*695 FILLER_18_85
*696 FILLER_18_97
*697 FILLER_19_103
*698 FILLER_19_107
*699 FILLER_19_111
*700 FILLER_19_113
*701 FILLER_19_121
*702 FILLER_19_131
*703 FILLER_19_143
*704 FILLER_19_15
*705 FILLER_19_155
*706 FILLER_19_167
*707 FILLER_19_169
*708 FILLER_19_181
*709 FILLER_19_193
*710 FILLER_19_205
*711 FILLER_19_217
*712 FILLER_19_223
*713 FILLER_19_225
*714 FILLER_19_237
*715 FILLER_19_249
*716 FILLER_19_261
*717 FILLER_19_27
*718 FILLER_19_273
*719 FILLER_19_279
*720 FILLER_19_281
*721 FILLER_19_293
*722 FILLER_19_3
*723 FILLER_19_39
*724 FILLER_19_52
*725 FILLER_19_63
*726 FILLER_19_67
*727 FILLER_19_71
*728 FILLER_19_91
*729 FILLER_1_102
*730 FILLER_1_110
*731 FILLER_1_113
*732 FILLER_1_125
*733 FILLER_1_137
*734 FILLER_1_149
*735 FILLER_1_15
*736 FILLER_1_161
*737 FILLER_1_167
*738 FILLER_1_169
*739 FILLER_1_181
*740 FILLER_1_193
*741 FILLER_1_205
*742 FILLER_1_217
*743 FILLER_1_223
*744 FILLER_1_225
*745 FILLER_1_237
*746 FILLER_1_249
*747 FILLER_1_261
*748 FILLER_1_27
*749 FILLER_1_273
*750 FILLER_1_279
*751 FILLER_1_281
*752 FILLER_1_293
*753 FILLER_1_3
*754 FILLER_1_35
*755 FILLER_1_52
*756 FILLER_1_66
*757 FILLER_1_78
*758 FILLER_1_90
*759 FILLER_20_115
*760 FILLER_20_127
*761 FILLER_20_139
*762 FILLER_20_141
*763 FILLER_20_15
*764 FILLER_20_153
*765 FILLER_20_165
*766 FILLER_20_177
*767 FILLER_20_189
*768 FILLER_20_195
*769 FILLER_20_197
*770 FILLER_20_209
*771 FILLER_20_221
*772 FILLER_20_233
*773 FILLER_20_245
*774 FILLER_20_251
*775 FILLER_20_253
*776 FILLER_20_265
*777 FILLER_20_27
*778 FILLER_20_277
*779 FILLER_20_289
*780 FILLER_20_29
*781 FILLER_20_297
*782 FILLER_20_3
*783 FILLER_20_46
*784 FILLER_20_59
*785 FILLER_20_66
*786 FILLER_20_80
*787 FILLER_20_88
*788 FILLER_20_96
*789 FILLER_21_102
*790 FILLER_21_110
*791 FILLER_21_122
*792 FILLER_21_134
*793 FILLER_21_146
*794 FILLER_21_15
*795 FILLER_21_158
*796 FILLER_21_166
*797 FILLER_21_169
*798 FILLER_21_181
*799 FILLER_21_193
*800 FILLER_21_205
*801 FILLER_21_217
*802 FILLER_21_223
*803 FILLER_21_225
*804 FILLER_21_237
*805 FILLER_21_249
*806 FILLER_21_261
*807 FILLER_21_27
*808 FILLER_21_273
*809 FILLER_21_279
*810 FILLER_21_281
*811 FILLER_21_293
*812 FILLER_21_3
*813 FILLER_21_33
*814 FILLER_21_37
*815 FILLER_21_50
*816 FILLER_21_60
*817 FILLER_21_67
*818 FILLER_21_76
*819 FILLER_21_91
*820 FILLER_22_108
*821 FILLER_22_120
*822 FILLER_22_131
*823 FILLER_22_139
*824 FILLER_22_141
*825 FILLER_22_15
*826 FILLER_22_153
*827 FILLER_22_165
*828 FILLER_22_177
*829 FILLER_22_189
*830 FILLER_22_195
*831 FILLER_22_197
*832 FILLER_22_209
*833 FILLER_22_221
*834 FILLER_22_233
*835 FILLER_22_245
*836 FILLER_22_251
*837 FILLER_22_253
*838 FILLER_22_265
*839 FILLER_22_27
*840 FILLER_22_277
*841 FILLER_22_289
*842 FILLER_22_29
*843 FILLER_22_297
*844 FILLER_22_3
*845 FILLER_22_33
*846 FILLER_22_50
*847 FILLER_22_66
*848 FILLER_22_76
*849 FILLER_22_85
*850 FILLER_22_89
*851 FILLER_22_97
*852 FILLER_23_103
*853 FILLER_23_111
*854 FILLER_23_113
*855 FILLER_23_119
*856 FILLER_23_130
*857 FILLER_23_138
*858 FILLER_23_15
*859 FILLER_23_150
*860 FILLER_23_162
*861 FILLER_23_169
*862 FILLER_23_181
*863 FILLER_23_193
*864 FILLER_23_205
*865 FILLER_23_217
*866 FILLER_23_223
*867 FILLER_23_225
*868 FILLER_23_237
*869 FILLER_23_249
*870 FILLER_23_261
*871 FILLER_23_273
*872 FILLER_23_279
*873 FILLER_23_281
*874 FILLER_23_293
*875 FILLER_23_3
*876 FILLER_23_43
*877 FILLER_23_52
*878 FILLER_23_64
*879 FILLER_23_75
*880 FILLER_23_88
*881 FILLER_23_92
*882 FILLER_23_96
*883 FILLER_24_113
*884 FILLER_24_126
*885 FILLER_24_133
*886 FILLER_24_139
*887 FILLER_24_141
*888 FILLER_24_15
*889 FILLER_24_153
*890 FILLER_24_165
*891 FILLER_24_177
*892 FILLER_24_189
*893 FILLER_24_195
*894 FILLER_24_197
*895 FILLER_24_209
*896 FILLER_24_221
*897 FILLER_24_233
*898 FILLER_24_245
*899 FILLER_24_251
*900 FILLER_24_253
*901 FILLER_24_265
*902 FILLER_24_27
*903 FILLER_24_277
*904 FILLER_24_289
*905 FILLER_24_297
*906 FILLER_24_3
*907 FILLER_24_32
*908 FILLER_24_40
*909 FILLER_24_50
*910 FILLER_24_56
*911 FILLER_24_62
*912 FILLER_24_71
*913 FILLER_24_78
*914 FILLER_24_88
*915 FILLER_24_96
*916 FILLER_25_104
*917 FILLER_25_120
*918 FILLER_25_128
*919 FILLER_25_134
*920 FILLER_25_141
*921 FILLER_25_148
*922 FILLER_25_15
*923 FILLER_25_160
*924 FILLER_25_169
*925 FILLER_25_181
*926 FILLER_25_193
*927 FILLER_25_205
*928 FILLER_25_21
*929 FILLER_25_217
*930 FILLER_25_223
*931 FILLER_25_225
*932 FILLER_25_237
*933 FILLER_25_249
*934 FILLER_25_261
*935 FILLER_25_273
*936 FILLER_25_279
*937 FILLER_25_281
*938 FILLER_25_293
*939 FILLER_25_3
*940 FILLER_25_38
*941 FILLER_25_46
*942 FILLER_25_52
*943 FILLER_25_57
*944 FILLER_25_66
*945 FILLER_25_74
*946 FILLER_25_91
*947 FILLER_26_116
*948 FILLER_26_124
*949 FILLER_26_13
*950 FILLER_26_133
*951 FILLER_26_139
*952 FILLER_26_149
*953 FILLER_26_161
*954 FILLER_26_173
*955 FILLER_26_185
*956 FILLER_26_193
*957 FILLER_26_197
*958 FILLER_26_209
*959 FILLER_26_221
*960 FILLER_26_233
*961 FILLER_26_245
*962 FILLER_26_25
*963 FILLER_26_251
*964 FILLER_26_253
*965 FILLER_26_265
*966 FILLER_26_277
*967 FILLER_26_289
*968 FILLER_26_29
*969 FILLER_26_297
*970 FILLER_26_35
*971 FILLER_26_48
*972 FILLER_26_72
*973 FILLER_26_79
*974 FILLER_26_83
*975 FILLER_26_95
*976 FILLER_26_99
*977 FILLER_27_101
*978 FILLER_27_107
*979 FILLER_27_111
*980 FILLER_27_122
*981 FILLER_27_137
*982 FILLER_27_148
*983 FILLER_27_15
*984 FILLER_27_160
*985 FILLER_27_169
*986 FILLER_27_181
*987 FILLER_27_193
*988 FILLER_27_205
*989 FILLER_27_217
*990 FILLER_27_223
*991 FILLER_27_225
*992 FILLER_27_237
*993 FILLER_27_249
*994 FILLER_27_261
*995 FILLER_27_273
*996 FILLER_27_279
*997 FILLER_27_281
*998 FILLER_27_293
*999 FILLER_27_3
*1000 FILLER_27_32
*1001 FILLER_27_52
*1002 FILLER_27_65
*1003 FILLER_27_72
*1004 FILLER_27_79
*1005 FILLER_27_93
*1006 FILLER_28_101
*1007 FILLER_28_108
*1008 FILLER_28_119
*1009 FILLER_28_123
*1010 FILLER_28_133
*1011 FILLER_28_139
*1012 FILLER_28_141
*1013 FILLER_28_15
*1014 FILLER_28_153
*1015 FILLER_28_165
*1016 FILLER_28_177
*1017 FILLER_28_189
*1018 FILLER_28_195
*1019 FILLER_28_197
*1020 FILLER_28_209
*1021 FILLER_28_221
*1022 FILLER_28_233
*1023 FILLER_28_24
*1024 FILLER_28_245
*1025 FILLER_28_251
*1026 FILLER_28_253
*1027 FILLER_28_265
*1028 FILLER_28_277
*1029 FILLER_28_289
*1030 FILLER_28_29
*1031 FILLER_28_297
*1032 FILLER_28_3
*1033 FILLER_28_35
*1034 FILLER_28_47
*1035 FILLER_28_54
*1036 FILLER_28_58
*1037 FILLER_28_63
*1038 FILLER_28_71
*1039 FILLER_28_79
*1040 FILLER_28_83
*1041 FILLER_29_104
*1042 FILLER_29_108
*1043 FILLER_29_11
*1044 FILLER_29_113
*1045 FILLER_29_121
*1046 FILLER_29_133
*1047 FILLER_29_145
*1048 FILLER_29_157
*1049 FILLER_29_165
*1050 FILLER_29_169
*1051 FILLER_29_181
*1052 FILLER_29_193
*1053 FILLER_29_205
*1054 FILLER_29_217
*1055 FILLER_29_223
*1056 FILLER_29_225
*1057 FILLER_29_237
*1058 FILLER_29_249
*1059 FILLER_29_261
*1060 FILLER_29_273
*1061 FILLER_29_279
*1062 FILLER_29_281
*1063 FILLER_29_293
*1064 FILLER_29_3
*1065 FILLER_29_30
*1066 FILLER_29_40
*1067 FILLER_29_52
*1068 FILLER_29_64
*1069 FILLER_29_73
*1070 FILLER_29_85
*1071 FILLER_29_98
*1072 FILLER_2_109
*1073 FILLER_2_121
*1074 FILLER_2_133
*1075 FILLER_2_139
*1076 FILLER_2_141
*1077 FILLER_2_15
*1078 FILLER_2_153
*1079 FILLER_2_165
*1080 FILLER_2_177
*1081 FILLER_2_189
*1082 FILLER_2_195
*1083 FILLER_2_197
*1084 FILLER_2_209
*1085 FILLER_2_221
*1086 FILLER_2_233
*1087 FILLER_2_245
*1088 FILLER_2_251
*1089 FILLER_2_253
*1090 FILLER_2_265
*1091 FILLER_2_27
*1092 FILLER_2_277
*1093 FILLER_2_289
*1094 FILLER_2_29
*1095 FILLER_2_297
*1096 FILLER_2_3
*1097 FILLER_2_35
*1098 FILLER_2_52
*1099 FILLER_2_72
*1100 FILLER_2_85
*1101 FILLER_2_97
*1102 FILLER_30_10
*1103 FILLER_30_108
*1104 FILLER_30_114
*1105 FILLER_30_122
*1106 FILLER_30_130
*1107 FILLER_30_136
*1108 FILLER_30_146
*1109 FILLER_30_158
*1110 FILLER_30_170
*1111 FILLER_30_18
*1112 FILLER_30_182
*1113 FILLER_30_194
*1114 FILLER_30_197
*1115 FILLER_30_209
*1116 FILLER_30_221
*1117 FILLER_30_233
*1118 FILLER_30_24
*1119 FILLER_30_245
*1120 FILLER_30_251
*1121 FILLER_30_253
*1122 FILLER_30_265
*1123 FILLER_30_277
*1124 FILLER_30_289
*1125 FILLER_30_297
*1126 FILLER_30_3
*1127 FILLER_30_39
*1128 FILLER_30_65
*1129 FILLER_30_72
*1130 FILLER_30_85
*1131 FILLER_30_93
*1132 FILLER_31_108
*1133 FILLER_31_113
*1134 FILLER_31_12
*1135 FILLER_31_122
*1136 FILLER_31_135
*1137 FILLER_31_147
*1138 FILLER_31_159
*1139 FILLER_31_167
*1140 FILLER_31_169
*1141 FILLER_31_181
*1142 FILLER_31_193
*1143 FILLER_31_205
*1144 FILLER_31_217
*1145 FILLER_31_223
*1146 FILLER_31_225
*1147 FILLER_31_237
*1148 FILLER_31_249
*1149 FILLER_31_261
*1150 FILLER_31_273
*1151 FILLER_31_279
*1152 FILLER_31_281
*1153 FILLER_31_293
*1154 FILLER_31_3
*1155 FILLER_31_36
*1156 FILLER_31_44
*1157 FILLER_31_50
*1158 FILLER_31_57
*1159 FILLER_31_61
*1160 FILLER_31_74
*1161 FILLER_31_82
*1162 FILLER_31_90
*1163 FILLER_32_101
*1164 FILLER_32_108
*1165 FILLER_32_126
*1166 FILLER_32_138
*1167 FILLER_32_144
*1168 FILLER_32_156
*1169 FILLER_32_168
*1170 FILLER_32_18
*1171 FILLER_32_180
*1172 FILLER_32_192
*1173 FILLER_32_197
*1174 FILLER_32_209
*1175 FILLER_32_221
*1176 FILLER_32_233
*1177 FILLER_32_245
*1178 FILLER_32_251
*1179 FILLER_32_253
*1180 FILLER_32_26
*1181 FILLER_32_265
*1182 FILLER_32_277
*1183 FILLER_32_289
*1184 FILLER_32_29
*1185 FILLER_32_297
*1186 FILLER_32_34
*1187 FILLER_32_42
*1188 FILLER_32_50
*1189 FILLER_32_59
*1190 FILLER_32_63
*1191 FILLER_32_70
*1192 FILLER_32_80
*1193 FILLER_32_9
*1194 FILLER_33_108
*1195 FILLER_33_11
*1196 FILLER_33_118
*1197 FILLER_33_134
*1198 FILLER_33_146
*1199 FILLER_33_158
*1200 FILLER_33_166
*1201 FILLER_33_169
*1202 FILLER_33_18
*1203 FILLER_33_181
*1204 FILLER_33_193
*1205 FILLER_33_205
*1206 FILLER_33_217
*1207 FILLER_33_223
*1208 FILLER_33_225
*1209 FILLER_33_237
*1210 FILLER_33_249
*1211 FILLER_33_261
*1212 FILLER_33_27
*1213 FILLER_33_273
*1214 FILLER_33_279
*1215 FILLER_33_281
*1216 FILLER_33_293
*1217 FILLER_33_3
*1218 FILLER_33_35
*1219 FILLER_33_52
*1220 FILLER_33_65
*1221 FILLER_33_75
*1222 FILLER_33_79
*1223 FILLER_33_83
*1224 FILLER_33_96
*1225 FILLER_34_110
*1226 FILLER_34_116
*1227 FILLER_34_122
*1228 FILLER_34_13
*1229 FILLER_34_135
*1230 FILLER_34_139
*1231 FILLER_34_141
*1232 FILLER_34_149
*1233 FILLER_34_161
*1234 FILLER_34_173
*1235 FILLER_34_185
*1236 FILLER_34_19
*1237 FILLER_34_193
*1238 FILLER_34_197
*1239 FILLER_34_209
*1240 FILLER_34_221
*1241 FILLER_34_233
*1242 FILLER_34_24
*1243 FILLER_34_245
*1244 FILLER_34_251
*1245 FILLER_34_253
*1246 FILLER_34_265
*1247 FILLER_34_277
*1248 FILLER_34_289
*1249 FILLER_34_297
*1250 FILLER_34_3
*1251 FILLER_34_45
*1252 FILLER_34_54
*1253 FILLER_34_58
*1254 FILLER_34_75
*1255 FILLER_34_83
*1256 FILLER_34_85
*1257 FILLER_34_90
*1258 FILLER_35_106
*1259 FILLER_35_11
*1260 FILLER_35_116
*1261 FILLER_35_120
*1262 FILLER_35_129
*1263 FILLER_35_133
*1264 FILLER_35_141
*1265 FILLER_35_151
*1266 FILLER_35_163
*1267 FILLER_35_167
*1268 FILLER_35_169
*1269 FILLER_35_17
*1270 FILLER_35_181
*1271 FILLER_35_193
*1272 FILLER_35_205
*1273 FILLER_35_217
*1274 FILLER_35_223
*1275 FILLER_35_225
*1276 FILLER_35_237
*1277 FILLER_35_249
*1278 FILLER_35_25
*1279 FILLER_35_261
*1280 FILLER_35_273
*1281 FILLER_35_279
*1282 FILLER_35_281
*1283 FILLER_35_293
*1284 FILLER_35_3
*1285 FILLER_35_37
*1286 FILLER_35_45
*1287 FILLER_35_49
*1288 FILLER_35_55
*1289 FILLER_35_61
*1290 FILLER_35_73
*1291 FILLER_35_92
*1292 FILLER_35_96
*1293 FILLER_36_106
*1294 FILLER_36_125
*1295 FILLER_36_137
*1296 FILLER_36_141
*1297 FILLER_36_153
*1298 FILLER_36_165
*1299 FILLER_36_177
*1300 FILLER_36_189
*1301 FILLER_36_19
*1302 FILLER_36_195
*1303 FILLER_36_197
*1304 FILLER_36_209
*1305 FILLER_36_221
*1306 FILLER_36_233
*1307 FILLER_36_245
*1308 FILLER_36_251
*1309 FILLER_36_253
*1310 FILLER_36_265
*1311 FILLER_36_27
*1312 FILLER_36_277
*1313 FILLER_36_289
*1314 FILLER_36_29
*1315 FILLER_36_297
*1316 FILLER_36_33
*1317 FILLER_36_38
*1318 FILLER_36_46
*1319 FILLER_36_58
*1320 FILLER_36_70
*1321 FILLER_36_76
*1322 FILLER_36_80
*1323 FILLER_36_94
*1324 FILLER_37_105
*1325 FILLER_37_111
*1326 FILLER_37_12
*1327 FILLER_37_120
*1328 FILLER_37_133
*1329 FILLER_37_143
*1330 FILLER_37_155
*1331 FILLER_37_167
*1332 FILLER_37_169
*1333 FILLER_37_181
*1334 FILLER_37_193
*1335 FILLER_37_205
*1336 FILLER_37_21
*1337 FILLER_37_217
*1338 FILLER_37_223
*1339 FILLER_37_225
*1340 FILLER_37_237
*1341 FILLER_37_249
*1342 FILLER_37_261
*1343 FILLER_37_273
*1344 FILLER_37_279
*1345 FILLER_37_281
*1346 FILLER_37_29
*1347 FILLER_37_293
*1348 FILLER_37_3
*1349 FILLER_37_34
*1350 FILLER_37_42
*1351 FILLER_37_50
*1352 FILLER_37_57
*1353 FILLER_37_66
*1354 FILLER_37_7
*1355 FILLER_37_86
*1356 FILLER_37_94
*1357 FILLER_38_105
*1358 FILLER_38_11
*1359 FILLER_38_118
*1360 FILLER_38_131
*1361 FILLER_38_139
*1362 FILLER_38_141
*1363 FILLER_38_153
*1364 FILLER_38_165
*1365 FILLER_38_177
*1366 FILLER_38_18
*1367 FILLER_38_189
*1368 FILLER_38_195
*1369 FILLER_38_197
*1370 FILLER_38_209
*1371 FILLER_38_221
*1372 FILLER_38_233
*1373 FILLER_38_245
*1374 FILLER_38_251
*1375 FILLER_38_253
*1376 FILLER_38_26
*1377 FILLER_38_265
*1378 FILLER_38_277
*1379 FILLER_38_289
*1380 FILLER_38_297
*1381 FILLER_38_3
*1382 FILLER_38_36
*1383 FILLER_38_46
*1384 FILLER_38_66
*1385 FILLER_38_70
*1386 FILLER_38_80
*1387 FILLER_38_85
*1388 FILLER_39_108
*1389 FILLER_39_119
*1390 FILLER_39_128
*1391 FILLER_39_140
*1392 FILLER_39_152
*1393 FILLER_39_164
*1394 FILLER_39_169
*1395 FILLER_39_181
*1396 FILLER_39_19
*1397 FILLER_39_193
*1398 FILLER_39_205
*1399 FILLER_39_217
*1400 FILLER_39_223
*1401 FILLER_39_225
*1402 FILLER_39_237
*1403 FILLER_39_249
*1404 FILLER_39_261
*1405 FILLER_39_273
*1406 FILLER_39_279
*1407 FILLER_39_28
*1408 FILLER_39_281
*1409 FILLER_39_293
*1410 FILLER_39_48
*1411 FILLER_39_67
*1412 FILLER_39_75
*1413 FILLER_39_81
*1414 FILLER_39_88
*1415 FILLER_39_95
*1416 FILLER_3_105
*1417 FILLER_3_111
*1418 FILLER_3_113
*1419 FILLER_3_125
*1420 FILLER_3_137
*1421 FILLER_3_149
*1422 FILLER_3_15
*1423 FILLER_3_161
*1424 FILLER_3_167
*1425 FILLER_3_169
*1426 FILLER_3_181
*1427 FILLER_3_193
*1428 FILLER_3_205
*1429 FILLER_3_217
*1430 FILLER_3_223
*1431 FILLER_3_225
*1432 FILLER_3_237
*1433 FILLER_3_249
*1434 FILLER_3_261
*1435 FILLER_3_27
*1436 FILLER_3_273
*1437 FILLER_3_279
*1438 FILLER_3_281
*1439 FILLER_3_293
*1440 FILLER_3_3
*1441 FILLER_3_38
*1442 FILLER_3_50
*1443 FILLER_3_57
*1444 FILLER_3_69
*1445 FILLER_3_81
*1446 FILLER_3_93
*1447 FILLER_40_101
*1448 FILLER_40_117
*1449 FILLER_40_124
*1450 FILLER_40_136
*1451 FILLER_40_141
*1452 FILLER_40_15
*1453 FILLER_40_153
*1454 FILLER_40_165
*1455 FILLER_40_177
*1456 FILLER_40_189
*1457 FILLER_40_195
*1458 FILLER_40_197
*1459 FILLER_40_209
*1460 FILLER_40_22
*1461 FILLER_40_221
*1462 FILLER_40_233
*1463 FILLER_40_245
*1464 FILLER_40_251
*1465 FILLER_40_253
*1466 FILLER_40_265
*1467 FILLER_40_277
*1468 FILLER_40_289
*1469 FILLER_40_29
*1470 FILLER_40_297
*1471 FILLER_40_3
*1472 FILLER_40_40
*1473 FILLER_40_58
*1474 FILLER_40_64
*1475 FILLER_40_75
*1476 FILLER_40_83
*1477 FILLER_40_85
*1478 FILLER_40_97
*1479 FILLER_41_108
*1480 FILLER_41_113
*1481 FILLER_41_125
*1482 FILLER_41_137
*1483 FILLER_41_149
*1484 FILLER_41_16
*1485 FILLER_41_161
*1486 FILLER_41_167
*1487 FILLER_41_169
*1488 FILLER_41_181
*1489 FILLER_41_193
*1490 FILLER_41_205
*1491 FILLER_41_217
*1492 FILLER_41_223
*1493 FILLER_41_225
*1494 FILLER_41_237
*1495 FILLER_41_249
*1496 FILLER_41_261
*1497 FILLER_41_273
*1498 FILLER_41_279
*1499 FILLER_41_281
*1500 FILLER_41_293
*1501 FILLER_41_3
*1502 FILLER_41_40
*1503 FILLER_41_52
*1504 FILLER_41_57
*1505 FILLER_41_61
*1506 FILLER_41_75
*1507 FILLER_41_86
*1508 FILLER_42_109
*1509 FILLER_42_121
*1510 FILLER_42_133
*1511 FILLER_42_139
*1512 FILLER_42_141
*1513 FILLER_42_153
*1514 FILLER_42_16
*1515 FILLER_42_165
*1516 FILLER_42_177
*1517 FILLER_42_189
*1518 FILLER_42_195
*1519 FILLER_42_197
*1520 FILLER_42_209
*1521 FILLER_42_221
*1522 FILLER_42_23
*1523 FILLER_42_233
*1524 FILLER_42_245
*1525 FILLER_42_251
*1526 FILLER_42_253
*1527 FILLER_42_265
*1528 FILLER_42_27
*1529 FILLER_42_277
*1530 FILLER_42_289
*1531 FILLER_42_297
*1532 FILLER_42_3
*1533 FILLER_42_32
*1534 FILLER_42_43
*1535 FILLER_42_57
*1536 FILLER_42_63
*1537 FILLER_42_80
*1538 FILLER_42_85
*1539 FILLER_42_97
*1540 FILLER_43_11
*1541 FILLER_43_111
*1542 FILLER_43_113
*1543 FILLER_43_125
*1544 FILLER_43_137
*1545 FILLER_43_149
*1546 FILLER_43_161
*1547 FILLER_43_167
*1548 FILLER_43_169
*1549 FILLER_43_181
*1550 FILLER_43_193
*1551 FILLER_43_205
*1552 FILLER_43_217
*1553 FILLER_43_223
*1554 FILLER_43_225
*1555 FILLER_43_237
*1556 FILLER_43_249
*1557 FILLER_43_261
*1558 FILLER_43_273
*1559 FILLER_43_279
*1560 FILLER_43_281
*1561 FILLER_43_293
*1562 FILLER_43_31
*1563 FILLER_43_38
*1564 FILLER_43_51
*1565 FILLER_43_55
*1566 FILLER_43_65
*1567 FILLER_43_75
*1568 FILLER_43_87
*1569 FILLER_43_99
*1570 FILLER_44_109
*1571 FILLER_44_121
*1572 FILLER_44_13
*1573 FILLER_44_133
*1574 FILLER_44_139
*1575 FILLER_44_141
*1576 FILLER_44_153
*1577 FILLER_44_165
*1578 FILLER_44_17
*1579 FILLER_44_177
*1580 FILLER_44_189
*1581 FILLER_44_195
*1582 FILLER_44_197
*1583 FILLER_44_209
*1584 FILLER_44_221
*1585 FILLER_44_23
*1586 FILLER_44_233
*1587 FILLER_44_245
*1588 FILLER_44_251
*1589 FILLER_44_253
*1590 FILLER_44_265
*1591 FILLER_44_27
*1592 FILLER_44_277
*1593 FILLER_44_289
*1594 FILLER_44_29
*1595 FILLER_44_297
*1596 FILLER_44_3
*1597 FILLER_44_39
*1598 FILLER_44_50
*1599 FILLER_44_59
*1600 FILLER_44_63
*1601 FILLER_44_71
*1602 FILLER_44_78
*1603 FILLER_44_85
*1604 FILLER_44_97
*1605 FILLER_45_111
*1606 FILLER_45_113
*1607 FILLER_45_125
*1608 FILLER_45_137
*1609 FILLER_45_149
*1610 FILLER_45_16
*1611 FILLER_45_161
*1612 FILLER_45_167
*1613 FILLER_45_169
*1614 FILLER_45_181
*1615 FILLER_45_193
*1616 FILLER_45_205
*1617 FILLER_45_217
*1618 FILLER_45_223
*1619 FILLER_45_225
*1620 FILLER_45_237
*1621 FILLER_45_24
*1622 FILLER_45_249
*1623 FILLER_45_261
*1624 FILLER_45_273
*1625 FILLER_45_279
*1626 FILLER_45_281
*1627 FILLER_45_293
*1628 FILLER_45_3
*1629 FILLER_45_30
*1630 FILLER_45_47
*1631 FILLER_45_55
*1632 FILLER_45_57
*1633 FILLER_45_67
*1634 FILLER_45_87
*1635 FILLER_45_9
*1636 FILLER_45_99
*1637 FILLER_46_109
*1638 FILLER_46_121
*1639 FILLER_46_133
*1640 FILLER_46_139
*1641 FILLER_46_141
*1642 FILLER_46_153
*1643 FILLER_46_165
*1644 FILLER_46_177
*1645 FILLER_46_189
*1646 FILLER_46_19
*1647 FILLER_46_195
*1648 FILLER_46_197
*1649 FILLER_46_209
*1650 FILLER_46_221
*1651 FILLER_46_233
*1652 FILLER_46_245
*1653 FILLER_46_251
*1654 FILLER_46_253
*1655 FILLER_46_265
*1656 FILLER_46_27
*1657 FILLER_46_277
*1658 FILLER_46_289
*1659 FILLER_46_29
*1660 FILLER_46_297
*1661 FILLER_46_41
*1662 FILLER_46_45
*1663 FILLER_46_53
*1664 FILLER_46_66
*1665 FILLER_46_76
*1666 FILLER_46_85
*1667 FILLER_46_97
*1668 FILLER_47_104
*1669 FILLER_47_113
*1670 FILLER_47_125
*1671 FILLER_47_137
*1672 FILLER_47_14
*1673 FILLER_47_149
*1674 FILLER_47_161
*1675 FILLER_47_167
*1676 FILLER_47_169
*1677 FILLER_47_181
*1678 FILLER_47_193
*1679 FILLER_47_205
*1680 FILLER_47_217
*1681 FILLER_47_22
*1682 FILLER_47_223
*1683 FILLER_47_225
*1684 FILLER_47_237
*1685 FILLER_47_249
*1686 FILLER_47_261
*1687 FILLER_47_273
*1688 FILLER_47_279
*1689 FILLER_47_281
*1690 FILLER_47_293
*1691 FILLER_47_3
*1692 FILLER_47_34
*1693 FILLER_47_42
*1694 FILLER_47_49
*1695 FILLER_47_55
*1696 FILLER_47_61
*1697 FILLER_47_68
*1698 FILLER_47_80
*1699 FILLER_47_92
*1700 FILLER_48_109
*1701 FILLER_48_121
*1702 FILLER_48_133
*1703 FILLER_48_139
*1704 FILLER_48_14
*1705 FILLER_48_141
*1706 FILLER_48_153