*SPEF "ieee 1481-1999"
*DESIGN "rglenn_hex_to_7_seg"
*DATE "11:11:11 Fri 11 11, 1111"
*VENDOR "OpenRCX"
*PROGRAM "Parallel Extraction"
*VERSION "1.0"
*DESIGN_FLOW "NAME_SCOPE LOCAL" "PIN_CAP NONE"
*DIVIDER /
*DELIMITER :
*BUS_DELIMITER []
*T_UNIT 1 NS
*C_UNIT 1 PF
*R_UNIT 1 OHM
*L_UNIT 1 HENRY

*NAME_MAP
*1 io_in[0]
*2 io_in[1]
*3 io_in[2]
*4 io_in[3]
*5 io_in[4]
*6 io_in[5]
*7 io_in[6]
*8 io_in[7]
*9 io_out[0]
*10 io_out[1]
*11 io_out[2]
*12 io_out[3]
*13 io_out[4]
*14 io_out[5]
*15 io_out[6]
*16 io_out[7]
*19 _00_
*20 _01_
*21 _02_
*22 _03_
*23 _04_
*24 _05_
*25 _06_
*26 _07_
*27 _08_
*28 _09_
*29 _10_
*30 _11_
*31 _12_
*32 _13_
*33 _14_
*34 _15_
*35 _16_
*36 _17_
*37 _18_
*38 _19_
*39 _20_
*40 _21_
*41 _22_
*42 _23_
*43 _24_
*44 _25_
*45 _26_
*46 _27_
*47 _28_
*48 clknet_0_io_in[0]
*49 clknet_1_0__leaf_io_in[0]
*50 clknet_1_1__leaf_io_in[0]
*51 hex2seg7\.data\[0\]
*52 hex2seg7\.data\[1\]
*53 hex2seg7\.data\[2\]
*54 hex2seg7\.data\[3\]
*55 net1
*56 net2
*57 net3
*58 net4
*59 net5
*60 net6
*61 FILLER_0_109
*62 FILLER_0_113
*63 FILLER_0_125
*64 FILLER_0_137
*65 FILLER_0_141
*66 FILLER_0_153
*67 FILLER_0_165
*68 FILLER_0_169
*69 FILLER_0_181
*70 FILLER_0_193
*71 FILLER_0_197
*72 FILLER_0_209
*73 FILLER_0_221
*74 FILLER_0_225
*75 FILLER_0_237
*76 FILLER_0_24
*77 FILLER_0_249
*78 FILLER_0_253
*79 FILLER_0_265
*80 FILLER_0_277
*81 FILLER_0_281
*82 FILLER_0_293
*83 FILLER_0_3
*84 FILLER_0_45
*85 FILLER_0_53
*86 FILLER_0_57
*87 FILLER_0_69
*88 FILLER_0_81
*89 FILLER_0_85
*90 FILLER_0_97
*91 FILLER_10_109
*92 FILLER_10_121
*93 FILLER_10_133
*94 FILLER_10_139
*95 FILLER_10_141
*96 FILLER_10_15
*97 FILLER_10_153
*98 FILLER_10_165
*99 FILLER_10_177
*100 FILLER_10_189
*101 FILLER_10_195
*102 FILLER_10_197
*103 FILLER_10_209
*104 FILLER_10_221
*105 FILLER_10_233
*106 FILLER_10_245
*107 FILLER_10_251
*108 FILLER_10_253
*109 FILLER_10_265
*110 FILLER_10_27
*111 FILLER_10_277
*112 FILLER_10_289
*113 FILLER_10_29
*114 FILLER_10_297
*115 FILLER_10_3
*116 FILLER_10_41
*117 FILLER_10_53
*118 FILLER_10_65
*119 FILLER_10_77
*120 FILLER_10_83
*121 FILLER_10_85
*122 FILLER_10_97
*123 FILLER_11_105
*124 FILLER_11_111
*125 FILLER_11_113
*126 FILLER_11_125
*127 FILLER_11_137
*128 FILLER_11_149
*129 FILLER_11_15
*130 FILLER_11_161
*131 FILLER_11_167
*132 FILLER_11_169
*133 FILLER_11_181
*134 FILLER_11_193
*135 FILLER_11_205
*136 FILLER_11_217
*137 FILLER_11_223
*138 FILLER_11_225
*139 FILLER_11_237
*140 FILLER_11_249
*141 FILLER_11_261
*142 FILLER_11_27
*143 FILLER_11_273
*144 FILLER_11_279
*145 FILLER_11_281
*146 FILLER_11_293
*147 FILLER_11_3
*148 FILLER_11_39
*149 FILLER_11_51
*150 FILLER_11_55
*151 FILLER_11_57
*152 FILLER_11_69
*153 FILLER_11_81
*154 FILLER_11_93
*155 FILLER_12_109
*156 FILLER_12_121
*157 FILLER_12_133
*158 FILLER_12_139
*159 FILLER_12_141
*160 FILLER_12_153
*161 FILLER_12_165
*162 FILLER_12_177
*163 FILLER_12_18
*164 FILLER_12_189
*165 FILLER_12_195
*166 FILLER_12_197
*167 FILLER_12_209
*168 FILLER_12_221
*169 FILLER_12_233
*170 FILLER_12_245
*171 FILLER_12_251
*172 FILLER_12_253
*173 FILLER_12_26
*174 FILLER_12_265
*175 FILLER_12_277
*176 FILLER_12_289
*177 FILLER_12_29
*178 FILLER_12_297
*179 FILLER_12_41
*180 FILLER_12_53
*181 FILLER_12_6
*182 FILLER_12_65
*183 FILLER_12_77
*184 FILLER_12_83
*185 FILLER_12_85
*186 FILLER_12_97
*187 FILLER_13_105
*188 FILLER_13_111
*189 FILLER_13_113
*190 FILLER_13_125
*191 FILLER_13_137
*192 FILLER_13_149
*193 FILLER_13_15
*194 FILLER_13_161
*195 FILLER_13_167
*196 FILLER_13_169
*197 FILLER_13_181
*198 FILLER_13_193
*199 FILLER_13_205
*200 FILLER_13_217
*201 FILLER_13_223
*202 FILLER_13_225
*203 FILLER_13_237
*204 FILLER_13_249
*205 FILLER_13_261
*206 FILLER_13_27
*207 FILLER_13_273
*208 FILLER_13_279
*209 FILLER_13_281
*210 FILLER_13_293
*211 FILLER_13_3
*212 FILLER_13_39
*213 FILLER_13_51
*214 FILLER_13_55
*215 FILLER_13_57
*216 FILLER_13_69
*217 FILLER_13_81
*218 FILLER_13_93
*219 FILLER_14_105
*220 FILLER_14_11
*221 FILLER_14_111
*222 FILLER_14_123
*223 FILLER_14_135
*224 FILLER_14_139
*225 FILLER_14_141
*226 FILLER_14_153
*227 FILLER_14_16
*228 FILLER_14_165
*229 FILLER_14_177
*230 FILLER_14_189
*231 FILLER_14_195
*232 FILLER_14_197
*233 FILLER_14_209
*234 FILLER_14_221
*235 FILLER_14_233
*236 FILLER_14_245
*237 FILLER_14_251
*238 FILLER_14_253
*239 FILLER_14_265
*240 FILLER_14_277
*241 FILLER_14_289
*242 FILLER_14_29
*243 FILLER_14_297
*244 FILLER_14_3
*245 FILLER_14_41
*246 FILLER_14_53
*247 FILLER_14_65
*248 FILLER_14_77
*249 FILLER_14_83
*250 FILLER_14_85
*251 FILLER_14_97
*252 FILLER_15_105
*253 FILLER_15_111
*254 FILLER_15_113
*255 FILLER_15_125
*256 FILLER_15_137
*257 FILLER_15_149
*258 FILLER_15_15
*259 FILLER_15_161
*260 FILLER_15_167
*261 FILLER_15_169
*262 FILLER_15_181
*263 FILLER_15_193
*264 FILLER_15_205
*265 FILLER_15_217
*266 FILLER_15_223
*267 FILLER_15_225
*268 FILLER_15_237
*269 FILLER_15_249
*270 FILLER_15_261
*271 FILLER_15_27
*272 FILLER_15_273
*273 FILLER_15_279
*274 FILLER_15_281
*275 FILLER_15_293
*276 FILLER_15_3
*277 FILLER_15_39
*278 FILLER_15_51
*279 FILLER_15_55
*280 FILLER_15_57
*281 FILLER_15_69
*282 FILLER_15_81
*283 FILLER_15_93
*284 FILLER_16_109
*285 FILLER_16_121
*286 FILLER_16_133
*287 FILLER_16_139
*288 FILLER_16_141
*289 FILLER_16_153
*290 FILLER_16_165
*291 FILLER_16_177
*292 FILLER_16_18
*293 FILLER_16_189
*294 FILLER_16_195
*295 FILLER_16_197
*296 FILLER_16_209
*297 FILLER_16_221
*298 FILLER_16_233
*299 FILLER_16_245
*300 FILLER_16_251
*301 FILLER_16_253
*302 FILLER_16_26
*303 FILLER_16_265
*304 FILLER_16_277
*305 FILLER_16_289
*306 FILLER_16_29
*307 FILLER_16_297
*308 FILLER_16_41
*309 FILLER_16_53
*310 FILLER_16_6
*311 FILLER_16_65
*312 FILLER_16_77
*313 FILLER_16_83
*314 FILLER_16_85
*315 FILLER_16_97
*316 FILLER_17_105
*317 FILLER_17_111
*318 FILLER_17_113
*319 FILLER_17_125
*320 FILLER_17_137
*321 FILLER_17_149
*322 FILLER_17_15
*323 FILLER_17_161
*324 FILLER_17_167
*325 FILLER_17_169
*326 FILLER_17_181
*327 FILLER_17_193
*328 FILLER_17_205
*329 FILLER_17_217
*330 FILLER_17_223
*331 FILLER_17_225
*332 FILLER_17_237
*333 FILLER_17_249
*334 FILLER_17_261
*335 FILLER_17_27
*336 FILLER_17_273
*337 FILLER_17_279
*338 FILLER_17_281
*339 FILLER_17_293
*340 FILLER_17_3
*341 FILLER_17_39
*342 FILLER_17_51
*343 FILLER_17_55
*344 FILLER_17_57
*345 FILLER_17_69
*346 FILLER_17_81
*347 FILLER_17_93
*348 FILLER_18_109
*349 FILLER_18_127
*350 FILLER_18_139
*351 FILLER_18_141
*352 FILLER_18_15
*353 FILLER_18_153
*354 FILLER_18_165
*355 FILLER_18_177
*356 FILLER_18_189
*357 FILLER_18_195
*358 FILLER_18_197
*359 FILLER_18_209
*360 FILLER_18_221
*361 FILLER_18_233
*362 FILLER_18_245
*363 FILLER_18_251
*364 FILLER_18_253
*365 FILLER_18_265
*366 FILLER_18_27
*367 FILLER_18_277
*368 FILLER_18_289
*369 FILLER_18_29
*370 FILLER_18_297
*371 FILLER_18_3
*372 FILLER_18_41
*373 FILLER_18_53
*374 FILLER_18_65
*375 FILLER_18_77
*376 FILLER_18_83
*377 FILLER_18_85
*378 FILLER_18_97
*379 FILLER_19_108
*380 FILLER_19_113
*381 FILLER_19_125
*382 FILLER_19_137
*383 FILLER_19_149
*384 FILLER_19_15
*385 FILLER_19_161
*386 FILLER_19_167
*387 FILLER_19_169
*388 FILLER_19_181
*389 FILLER_19_193
*390 FILLER_19_205
*391 FILLER_19_217
*392 FILLER_19_223
*393 FILLER_19_225
*394 FILLER_19_237
*395 FILLER_19_249
*396 FILLER_19_261
*397 FILLER_19_27
*398 FILLER_19_273
*399 FILLER_19_279
*400 FILLER_19_281
*401 FILLER_19_293
*402 FILLER_19_3
*403 FILLER_19_39
*404 FILLER_19_51
*405 FILLER_19_55
*406 FILLER_19_57
*407 FILLER_19_69
*408 FILLER_19_96
*409 FILLER_1_105
*410 FILLER_1_111
*411 FILLER_1_113
*412 FILLER_1_125
*413 FILLER_1_137
*414 FILLER_1_149
*415 FILLER_1_15
*416 FILLER_1_161
*417 FILLER_1_167
*418 FILLER_1_169
*419 FILLER_1_181
*420 FILLER_1_19
*421 FILLER_1_193
*422 FILLER_1_205
*423 FILLER_1_217
*424 FILLER_1_223
*425 FILLER_1_225
*426 FILLER_1_237
*427 FILLER_1_249
*428 FILLER_1_261
*429 FILLER_1_273
*430 FILLER_1_279
*431 FILLER_1_281
*432 FILLER_1_293
*433 FILLER_1_3
*434 FILLER_1_36
*435 FILLER_1_48
*436 FILLER_1_57
*437 FILLER_1_69
*438 FILLER_1_81
*439 FILLER_1_93
*440 FILLER_20_109
*441 FILLER_20_121
*442 FILLER_20_133
*443 FILLER_20_139
*444 FILLER_20_141
*445 FILLER_20_153
*446 FILLER_20_165
*447 FILLER_20_177
*448 FILLER_20_18
*449 FILLER_20_189
*450 FILLER_20_195
*451 FILLER_20_197
*452 FILLER_20_209
*453 FILLER_20_221
*454 FILLER_20_233
*455 FILLER_20_245
*456 FILLER_20_251
*457 FILLER_20_253
*458 FILLER_20_26
*459 FILLER_20_265
*460 FILLER_20_277
*461 FILLER_20_289
*462 FILLER_20_29
*463 FILLER_20_297
*464 FILLER_20_39
*465 FILLER_20_51
*466 FILLER_20_6
*467 FILLER_20_63
*468 FILLER_20_75
*469 FILLER_20_83
*470 FILLER_20_85
*471 FILLER_20_97
*472 FILLER_21_105
*473 FILLER_21_111
*474 FILLER_21_113
*475 FILLER_21_125
*476 FILLER_21_137
*477 FILLER_21_149
*478 FILLER_21_15
*479 FILLER_21_161
*480 FILLER_21_167
*481 FILLER_21_169
*482 FILLER_21_181
*483 FILLER_21_193
*484 FILLER_21_205
*485 FILLER_21_217
*486 FILLER_21_223
*487 FILLER_21_225
*488 FILLER_21_237
*489 FILLER_21_249
*490 FILLER_21_261
*491 FILLER_21_27
*492 FILLER_21_273
*493 FILLER_21_279
*494 FILLER_21_281
*495 FILLER_21_293
*496 FILLER_21_3
*497 FILLER_21_39
*498 FILLER_21_51
*499 FILLER_21_55
*500 FILLER_21_57
*501 FILLER_21_69
*502 FILLER_21_81
*503 FILLER_21_93
*504 FILLER_22_109
*505 FILLER_22_121
*506 FILLER_22_133
*507 FILLER_22_139
*508 FILLER_22_141
*509 FILLER_22_15
*510 FILLER_22_153
*511 FILLER_22_165
*512 FILLER_22_177
*513 FILLER_22_189
*514 FILLER_22_195
*515 FILLER_22_197
*516 FILLER_22_209
*517 FILLER_22_221
*518 FILLER_22_233
*519 FILLER_22_245
*520 FILLER_22_251
*521 FILLER_22_253
*522 FILLER_22_265
*523 FILLER_22_27
*524 FILLER_22_277
*525 FILLER_22_289
*526 FILLER_22_29
*527 FILLER_22_297
*528 FILLER_22_3
*529 FILLER_22_41
*530 FILLER_22_53
*531 FILLER_22_65
*532 FILLER_22_77
*533 FILLER_22_83
*534 FILLER_22_85
*535 FILLER_22_97
*536 FILLER_23_104
*537 FILLER_23_113
*538 FILLER_23_125
*539 FILLER_23_137
*540 FILLER_23_149
*541 FILLER_23_15
*542 FILLER_23_161
*543 FILLER_23_167
*544 FILLER_23_169
*545 FILLER_23_181
*546 FILLER_23_193
*547 FILLER_23_205
*548 FILLER_23_217
*549 FILLER_23_223
*550 FILLER_23_225
*551 FILLER_23_237
*552 FILLER_23_249
*553 FILLER_23_261
*554 FILLER_23_27
*555 FILLER_23_273
*556 FILLER_23_279
*557 FILLER_23_281
*558 FILLER_23_293
*559 FILLER_23_3
*560 FILLER_23_39
*561 FILLER_23_51
*562 FILLER_23_55
*563 FILLER_23_57
*564 FILLER_23_69
*565 FILLER_23_92
*566 FILLER_24_109
*567 FILLER_24_121
*568 FILLER_24_133
*569 FILLER_24_139
*570 FILLER_24_141
*571 FILLER_24_153
*572 FILLER_24_165
*573 FILLER_24_177
*574 FILLER_24_18
*575 FILLER_24_189
*576 FILLER_24_195
*577 FILLER_24_197
*578 FILLER_24_209
*579 FILLER_24_221
*580 FILLER_24_233
*581 FILLER_24_245
*582 FILLER_24_251
*583 FILLER_24_253
*584 FILLER_24_26
*585 FILLER_24_265
*586 FILLER_24_277
*587 FILLER_24_289
*588 FILLER_24_29
*589 FILLER_24_297
*590 FILLER_24_41
*591 FILLER_24_53
*592 FILLER_24_6
*593 FILLER_24_65
*594 FILLER_24_76
*595 FILLER_24_85
*596 FILLER_24_97
*597 FILLER_25_105
*598 FILLER_25_111
*599 FILLER_25_113
*600 FILLER_25_125
*601 FILLER_25_137
*602 FILLER_25_149
*603 FILLER_25_15
*604 FILLER_25_161
*605 FILLER_25_167
*606 FILLER_25_169
*607 FILLER_25_181
*608 FILLER_25_193
*609 FILLER_25_205
*610 FILLER_25_217
*611 FILLER_25_223
*612 FILLER_25_225
*613 FILLER_25_237
*614 FILLER_25_249
*615 FILLER_25_261
*616 FILLER_25_273
*617 FILLER_25_279
*618 FILLER_25_281
*619 FILLER_25_293
*620 FILLER_25_3
*621 FILLER_25_38
*622 FILLER_25_50
*623 FILLER_25_57
*624 FILLER_25_69
*625 FILLER_25_81
*626 FILLER_25_93
*627 FILLER_26_109
*628 FILLER_26_121
*629 FILLER_26_133
*630 FILLER_26_139
*631 FILLER_26_141
*632 FILLER_26_15
*633 FILLER_26_153
*634 FILLER_26_165
*635 FILLER_26_177
*636 FILLER_26_189
*637 FILLER_26_195
*638 FILLER_26_197
*639 FILLER_26_209
*640 FILLER_26_221
*641 FILLER_26_233
*642 FILLER_26_245
*643 FILLER_26_251
*644 FILLER_26_253
*645 FILLER_26_265
*646 FILLER_26_27
*647 FILLER_26_277
*648 FILLER_26_289
*649 FILLER_26_29
*650 FILLER_26_297
*651 FILLER_26_3
*652 FILLER_26_37
*653 FILLER_26_47
*654 FILLER_26_59
*655 FILLER_26_71
*656 FILLER_26_83
*657 FILLER_26_85
*658 FILLER_26_97
*659 FILLER_27_105
*660 FILLER_27_111
*661 FILLER_27_113
*662 FILLER_27_125
*663 FILLER_27_137
*664 FILLER_27_149
*665 FILLER_27_15
*666 FILLER_27_161
*667 FILLER_27_167
*668 FILLER_27_169
*669 FILLER_27_181
*670 FILLER_27_193
*671 FILLER_27_205
*672 FILLER_27_217
*673 FILLER_27_223
*674 FILLER_27_225
*675 FILLER_27_237
*676 FILLER_27_249
*677 FILLER_27_261
*678 FILLER_27_27
*679 FILLER_27_273
*680 FILLER_27_279
*681 FILLER_27_281
*682 FILLER_27_293
*683 FILLER_27_3
*684 FILLER_27_39
*685 FILLER_27_51
*686 FILLER_27_55
*687 FILLER_27_57
*688 FILLER_27_69
*689 FILLER_27_81
*690 FILLER_27_93
*691 FILLER_28_109
*692 FILLER_28_121
*693 FILLER_28_133
*694 FILLER_28_139
*695 FILLER_28_141
*696 FILLER_28_153
*697 FILLER_28_165
*698 FILLER_28_177
*699 FILLER_28_189
*700 FILLER_28_195
*701 FILLER_28_197
*702 FILLER_28_20
*703 FILLER_28_209
*704 FILLER_28_221
*705 FILLER_28_233
*706 FILLER_28_245
*707 FILLER_28_251
*708 FILLER_28_253
*709 FILLER_28_265
*710 FILLER_28_277
*711 FILLER_28_289
*712 FILLER_28_297
*713 FILLER_28_3
*714 FILLER_28_42
*715 FILLER_28_54
*716 FILLER_28_66
*717 FILLER_28_74
*718 FILLER_28_80
*719 FILLER_28_85
*720 FILLER_28_97
*721 FILLER_29_104
*722 FILLER_29_113
*723 FILLER_29_125
*724 FILLER_29_137
*725 FILLER_29_14
*726 FILLER_29_149
*727 FILLER_29_161
*728 FILLER_29_167
*729 FILLER_29_169
*730 FILLER_29_181
*731 FILLER_29_193
*732 FILLER_29_20
*733 FILLER_29_205
*734 FILLER_29_217
*735 FILLER_29_223
*736 FILLER_29_225
*737 FILLER_29_237
*738 FILLER_29_249
*739 FILLER_29_261
*740 FILLER_29_273
*741 FILLER_29_279
*742 FILLER_29_281
*743 FILLER_29_293
*744 FILLER_29_3
*745 FILLER_29_37
*746 FILLER_29_44
*747 FILLER_29_57
*748 FILLER_29_80
*749 FILLER_29_92
*750 FILLER_2_109
*751 FILLER_2_121
*752 FILLER_2_133
*753 FILLER_2_139
*754 FILLER_2_141
*755 FILLER_2_153
*756 FILLER_2_165
*757 FILLER_2_177
*758 FILLER_2_189
*759 FILLER_2_195
*760 FILLER_2_197
*761 FILLER_2_209
*762 FILLER_2_21
*763 FILLER_2_221
*764 FILLER_2_233
*765 FILLER_2_245
*766 FILLER_2_251
*767 FILLER_2_253
*768 FILLER_2_265
*769 FILLER_2_27
*770 FILLER_2_277
*771 FILLER_2_289
*772 FILLER_2_29
*773 FILLER_2_297
*774 FILLER_2_3
*775 FILLER_2_41
*776 FILLER_2_53
*777 FILLER_2_65
*778 FILLER_2_77
*779 FILLER_2_83
*780 FILLER_2_85
*781 FILLER_2_97
*782 FILLER_30_109
*783 FILLER_30_121
*784 FILLER_30_133
*785 FILLER_30_139
*786 FILLER_30_141
*787 FILLER_30_15
*788 FILLER_30_153
*789 FILLER_30_165
*790 FILLER_30_177
*791 FILLER_30_189
*792 FILLER_30_195
*793 FILLER_30_197
*794 FILLER_30_209
*795 FILLER_30_221
*796 FILLER_30_233
*797 FILLER_30_245
*798 FILLER_30_251
*799 FILLER_30_253
*800 FILLER_30_265
*801 FILLER_30_27
*802 FILLER_30_277
*803 FILLER_30_289
*804 FILLER_30_29
*805 FILLER_30_297
*806 FILLER_30_3
*807 FILLER_30_54
*808 FILLER_30_66
*809 FILLER_30_78
*810 FILLER_30_85
*811 FILLER_30_97
*812 FILLER_31_105
*813 FILLER_31_111
*814 FILLER_31_113
*815 FILLER_31_125
*816 FILLER_31_137
*817 FILLER_31_149
*818 FILLER_31_161
*819 FILLER_31_167
*820 FILLER_31_169
*821 FILLER_31_17
*822 FILLER_31_181
*823 FILLER_31_193
*824 FILLER_31_205
*825 FILLER_31_217
*826 FILLER_31_223
*827 FILLER_31_225
*828 FILLER_31_237
*829 FILLER_31_249
*830 FILLER_31_261
*831 FILLER_31_273
*832 FILLER_31_279
*833 FILLER_31_281
*834 FILLER_31_29
*835 FILLER_31_293
*836 FILLER_31_3
*837 FILLER_31_33
*838 FILLER_31_43
*839 FILLER_31_55
*840 FILLER_31_57
*841 FILLER_31_69
*842 FILLER_31_8
*843 FILLER_31_81
*844 FILLER_31_93
*845 FILLER_32_109
*846 FILLER_32_121
*847 FILLER_32_133
*848 FILLER_32_139
*849 FILLER_32_141
*850 FILLER_32_153
*851 FILLER_32_165
*852 FILLER_32_177
*853 FILLER_32_189
*854 FILLER_32_195
*855 FILLER_32_197
*856 FILLER_32_209
*857 FILLER_32_221
*858 FILLER_32_233
*859 FILLER_32_24
*860 FILLER_32_245
*861 FILLER_32_251
*862 FILLER_32_253
*863 FILLER_32_265
*864 FILLER_32_277
*865 FILLER_32_289
*866 FILLER_32_297
*867 FILLER_32_3
*868 FILLER_32_35
*869 FILLER_32_47
*870 FILLER_32_55
*871 FILLER_32_64
*872 FILLER_32_76
*873 FILLER_32_85
*874 FILLER_32_97
*875 FILLER_33_105
*876 FILLER_33_111
*877 FILLER_33_113
*878 FILLER_33_125
*879 FILLER_33_137
*880 FILLER_33_149
*881 FILLER_33_15
*882 FILLER_33_161
*883 FILLER_33_167
*884 FILLER_33_169
*885 FILLER_33_181
*886 FILLER_33_193
*887 FILLER_33_205
*888 FILLER_33_217
*889 FILLER_33_223
*890 FILLER_33_225
*891 FILLER_33_23
*892 FILLER_33_237
*893 FILLER_33_249
*894 FILLER_33_261
*895 FILLER_33_273
*896 FILLER_33_279
*897 FILLER_33_281
*898 FILLER_33_29
*899 FILLER_33_293
*900 FILLER_33_3
*901 FILLER_33_41
*902 FILLER_33_49
*903 FILLER_33_55
*904 FILLER_33_57
*905 FILLER_33_69
*906 FILLER_33_81
*907 FILLER_33_93
*908 FILLER_34_109
*909 FILLER_34_12
*910 FILLER_34_121
*911 FILLER_34_133
*912 FILLER_34_139
*913 FILLER_34_141
*914 FILLER_34_153
*915 FILLER_34_165
*916 FILLER_34_177
*917 FILLER_34_189
*918 FILLER_34_195
*919 FILLER_34_197
*920 FILLER_34_209
*921 FILLER_34_221
*922 FILLER_34_233
*923 FILLER_34_24
*924 FILLER_34_245
*925 FILLER_34_251
*926 FILLER_34_253
*927 FILLER_34_265
*928 FILLER_34_277
*929 FILLER_34_289
*930 FILLER_34_29
*931 FILLER_34_297
*932 FILLER_34_3
*933 FILLER_34_41
*934 FILLER_34_60
*935 FILLER_34_72
*936 FILLER_34_85
*937 FILLER_34_97
*938 FILLER_35_110
*939 FILLER_35_113
*940 FILLER_35_125
*941 FILLER_35_137
*942 FILLER_35_149
*943 FILLER_35_15
*944 FILLER_35_161
*945 FILLER_35_167
*946 FILLER_35_169
*947 FILLER_35_181
*948 FILLER_35_193
*949 FILLER_35_205
*950 FILLER_35_217
*951 FILLER_35_223
*952 FILLER_35_225
*953 FILLER_35_237
*954 FILLER_35_249
*955 FILLER_35_261
*956 FILLER_35_27
*957 FILLER_35_273
*958 FILLER_35_279
*959 FILLER_35_281
*960 FILLER_35_293
*961 FILLER_35_3
*962 FILLER_35_39
*963 FILLER_35_51
*964 FILLER_35_55
*965 FILLER_35_57
*966 FILLER_35_69
*967 FILLER_35_77
*968 FILLER_35_86
*969 FILLER_35_98
*970 FILLER_36_109
*971 FILLER_36_121
*972 FILLER_36_133
*973 FILLER_36_139
*974 FILLER_36_141
*975 FILLER_36_15
*976 FILLER_36_153
*977 FILLER_36_165
*978 FILLER_36_177
*979 FILLER_36_189
*980 FILLER_36_195
*981 FILLER_36_197
*982 FILLER_36_209
*983 FILLER_36_221
*984 FILLER_36_233
*985 FILLER_36_245
*986 FILLER_36_251
*987 FILLER_36_253
*988 FILLER_36_265
*989 FILLER_36_27
*990 FILLER_36_277
*991 FILLER_36_289
*992 FILLER_36_29
*993 FILLER_36_297
*994 FILLER_36_3
*995 FILLER_36_41
*996 FILLER_36_53
*997 FILLER_36_65
*998 FILLER_36_77
*999 FILLER_36_83
*1000 FILLER_36_85
*1001 FILLER_36_97
*1002 FILLER_37_105
*1003 FILLER_37_111
*1004 FILLER_37_113
*1005 FILLER_37_125
*1006 FILLER_37_137
*1007 FILLER_37_149
*1008 FILLER_37_15
*1009 FILLER_37_161
*1010 FILLER_37_167
*1011 FILLER_37_169
*1012 FILLER_37_181
*1013 FILLER_37_193
*1014 FILLER_37_205
*1015 FILLER_37_217
*1016 FILLER_37_223
*1017 FILLER_37_225
*1018 FILLER_37_237
*1019 FILLER_37_249
*1020 FILLER_37_261
*1021 FILLER_37_27
*1022 FILLER_37_273
*1023 FILLER_37_279
*1024 FILLER_37_281
*1025 FILLER_37_293
*1026 FILLER_37_3
*1027 FILLER_37_39
*1028 FILLER_37_51
*1029 FILLER_37_55
*1030 FILLER_37_57
*1031 FILLER_37_69
*1032 FILLER_37_81
*1033 FILLER_37_93
*1034 FILLER_38_109
*1035 FILLER_38_121
*1036 FILLER_38_133
*1037 FILLER_38_139
*1038 FILLER_38_141
*1039 FILLER_38_15
*1040 FILLER_38_153
*1041 FILLER_38_165
*1042 FILLER_38_177
*1043 FILLER_38_189
*1044 FILLER_38_195
*1045 FILLER_38_197
*1046 FILLER_38_209
*1047 FILLER_38_221
*1048 FILLER_38_233
*1049 FILLER_38_245
*1050 FILLER_38_251
*1051 FILLER_38_253
*1052 FILLER_38_265
*1053 FILLER_38_27
*1054 FILLER_38_277
*1055 FILLER_38_289
*1056 FILLER_38_29
*1057 FILLER_38_297
*1058 FILLER_38_3
*1059 FILLER_38_36
*1060 FILLER_38_48
*1061 FILLER_38_60
*1062 FILLER_38_72
*1063 FILLER_38_85
*1064 FILLER_38_97
*1065 FILLER_39_105
*1066 FILLER_39_111
*1067 FILLER_39_113
*1068 FILLER_39_125
*1069 FILLER_39_137
*1070 FILLER_39_149
*1071 FILLER_39_15
*1072 FILLER_39_161
*1073 FILLER_39_167
*1074 FILLER_39_169
*1075 FILLER_39_181
*1076 FILLER_39_193
*1077 FILLER_39_205
*1078 FILLER_39_217
*1079 FILLER_39_223
*1080 FILLER_39_225
*1081 FILLER_39_237
*1082 FILLER_39_249
*1083 FILLER_39_261
*1084 FILLER_39_27
*1085 FILLER_39_273
*1086 FILLER_39_279
*1087 FILLER_39_281
*1088 FILLER_39_293
*1089 FILLER_39_3
*1090 FILLER_39_36
*1091 FILLER_39_48
*1092 FILLER_39_57
*1093 FILLER_39_69
*1094 FILLER_39_81
*1095 FILLER_39_93
*1096 FILLER_3_105
*1097 FILLER_3_111
*1098 FILLER_3_113
*1099 FILLER_3_125
*1100 FILLER_3_137
*1101 FILLER_3_149
*1102 FILLER_3_161
*1103 FILLER_3_167
*1104 FILLER_3_169
*1105 FILLER_3_181
*1106 FILLER_3_193
*1107 FILLER_3_205
*1108 FILLER_3_217
*1109 FILLER_3_223
*1110 FILLER_3_225
*1111 FILLER_3_237
*1112 FILLER_3_249
*1113 FILLER_3_261
*1114 FILLER_3_27
*1115 FILLER_3_273
*1116 FILLER_3_279
*1117 FILLER_3_281
*1118 FILLER_3_293
*1119 FILLER_3_3
*1120 FILLER_3_39
*1121 FILLER_3_51
*1122 FILLER_3_55
*1123 FILLER_3_57
*1124 FILLER_3_69
*1125 FILLER_3_81
*1126 FILLER_3_93
*1127 FILLER_40_109
*1128 FILLER_40_121
*1129 FILLER_40_133
*1130 FILLER_40_139
*1131 FILLER_40_144
*1132 FILLER_40_15
*1133 FILLER_40_156
*1134 FILLER_40_168
*1135 FILLER_40_180
*1136 FILLER_40_192
*1137 FILLER_40_197
*1138 FILLER_40_209
*1139 FILLER_40_221
*1140 FILLER_40_233
*1141 FILLER_40_245
*1142 FILLER_40_251
*1143 FILLER_40_253
*1144 FILLER_40_265
*1145 FILLER_40_27
*1146 FILLER_40_277
*1147 FILLER_40_289
*1148 FILLER_40_29
*1149 FILLER_40_297
*1150 FILLER_40_3
*1151 FILLER_40_41
*1152 FILLER_40_53
*1153 FILLER_40_65
*1154 FILLER_40_77
*1155 FILLER_40_83
*1156 FILLER_40_85
*1157 FILLER_40_97
*1158 FILLER_41_111
*1159 FILLER_41_113
*1160 FILLER_41_125
*1161 FILLER_41_137
*1162 FILLER_41_149
*1163 FILLER_41_15
*1164 FILLER_41_161
*1165 FILLER_41_167
*1166 FILLER_41_169
*1167 FILLER_41_181
*1168 FILLER_41_193
*1169 FILLER_41_205
*1170 FILLER_41_217
*1171 FILLER_41_223
*1172 FILLER_41_225
*1173 FILLER_41_237
*1174 FILLER_41_249
*1175 FILLER_41_261
*1176 FILLER_41_27
*1177 FILLER_41_273
*1178 FILLER_41_279
*1179 FILLER_41_281
*1180 FILLER_41_293
*1181 FILLER_41_3
*1182 FILLER_41_42
*1183 FILLER_41_54
*1184 FILLER_41_57
*1185 FILLER_41_69
*1186 FILLER_41_81
*1187 FILLER_41_89
*1188 FILLER_41_99
*1189 FILLER_42_109
*1190 FILLER_42_121
*1191 FILLER_42_133
*1192 FILLER_42_139
*1193 FILLER_42_141
*1194 FILLER_42_15
*1195 FILLER_42_153
*1196 FILLER_42_165
*1197 FILLER_42_177
*1198 FILLER_42_189
*1199 FILLER_42_195
*1200 FILLER_42_197
*1201 FILLER_42_209
*1202 FILLER_42_221
*1203 FILLER_42_233
*1204 FILLER_42_245
*1205 FILLER_42_251
*1206 FILLER_42_253
*1207 FILLER_42_265
*1208 FILLER_42_27
*1209 FILLER_42_277
*1210 FILLER_42_289
*1211 FILLER_42_29
*1212 FILLER_42_297
*1213 FILLER_42_3
*1214 FILLER_42_41
*1215 FILLER_42_53
*1216 FILLER_42_65
*1217 FILLER_42_77
*1218 FILLER_42_83
*1219 FILLER_42_85
*1220 FILLER_42_97
*1221 FILLER_43_105
*1222 FILLER_43_111
*1223 FILLER_43_113
*1224 FILLER_43_125
*1225 FILLER_43_137
*1226 FILLER_43_149
*1227 FILLER_43_15
*1228 FILLER_43_161
*1229 FILLER_43_167
*1230 FILLER_43_169
*1231 FILLER_43_181
*1232 FILLER_43_193
*1233 FILLER_43_205
*1234 FILLER_43_217
*1235 FILLER_43_223
*1236 FILLER_43_225
*1237 FILLER_43_23
*1238 FILLER_43_237
*1239 FILLER_43_249
*1240 FILLER_43_261
*1241 FILLER_43_273
*1242 FILLER_43_279
*1243 FILLER_43_28
*1244 FILLER_43_281
*1245 FILLER_43_293
*1246 FILLER_43_3
*1247 FILLER_43_40
*1248 FILLER_43_52
*1249 FILLER_43_57
*1250 FILLER_43_69
*1251 FILLER_43_81
*1252 FILLER_43_93
*1253 FILLER_44_109
*1254 FILLER_44_121
*1255 FILLER_44_133
*1256 FILLER_44_139
*1257 FILLER_44_141
*1258 FILLER_44_15
*1259 FILLER_44_153
*1260 FILLER_44_165
*1261 FILLER_44_177
*1262 FILLER_44_189
*1263 FILLER_44_195
*1264 FILLER_44_197
*1265 FILLER_44_209
*1266 FILLER_44_221
*1267 FILLER_44_233
*1268 FILLER_44_245
*1269 FILLER_44_251
*1270 FILLER_44_253
*1271 FILLER_44_265
*1272 FILLER_44_27
*1273 FILLER_44_277
*1274 FILLER_44_289
*1275 FILLER_44_29
*1276 FILLER_44_297
*1277 FILLER_44_3
*1278 FILLER_44_41
*1279 FILLER_44_53
*1280 FILLER_44_65
*1281 FILLER_44_77
*1282 FILLER_44_83
*1283 FILLER_44_85
*1284 FILLER_44_97
*1285 FILLER_45_105
*1286 FILLER_45_111
*1287 FILLER_45_113
*1288 FILLER_45_125
*1289 FILLER_45_137
*1290 FILLER_45_149
*1291 FILLER_45_15
*1292 FILLER_45_161
*1293 FILLER_45_167
*1294 FILLER_45_169
*1295 FILLER_45_181
*1296 FILLER_45_193
*1297 FILLER_45_205
*1298 FILLER_45_217
*1299 FILLER_45_223
*1300 FILLER_45_225
*1301 FILLER_45_237
*1302 FILLER_45_249
*1303 FILLER_45_261
*1304 FILLER_45_27
*1305 FILLER_45_273
*1306 FILLER_45_279
*1307 FILLER_45_281
*1308 FILLER_45_293
*1309 FILLER_45_3
*1310 FILLER_45_39
*1311 FILLER_45_51
*1312 FILLER_45_55
*1313 FILLER_45_57
*1314 FILLER_45_69
*1315 FILLER_45_81
*1316 FILLER_45_93
*1317 FILLER_46_109
*1318 FILLER_46_121
*1319 FILLER_46_133
*1320 FILLER_46_139
*1321 FILLER_46_141
*1322 FILLER_46_15
*1323 FILLER_46_153
*1324 FILLER_46_165
*1325 FILLER_46_177
*1326 FILLER_46_189
*1327 FILLER_46_195
*1328 FILLER_46_197
*1329 FILLER_46_209
*1330 FILLER_46_221
*1331 FILLER_46_233
*1332 FILLER_46_245
*1333 FILLER_46_251
*1334 FILLER_46_253
*1335 FILLER_46_265
*1336 FILLER_46_27
*1337 FILLER_46_277
*1338 FILLER_46_289
*1339 FILLER_46_29
*1340 FILLER_46_297
*1341 FILLER_46_3
*1342 FILLER_46_41
*1343 FILLER_46_53
*1344 FILLER_46_65
*1345 FILLER_46_77
*1346 FILLER_46_83
*1347 FILLER_46_85
*1348 FILLER_46_97
*1349 FILLER_47_105
*1350 FILLER_47_111
*1351 FILLER_47_113
*1352 FILLER_47_125
*1353 FILLER_47_137
*1354 FILLER_47_149
*1355 FILLER_47_15
*1356 FILLER_47_161
*1357 FILLER_47_167
*1358 FILLER_47_169
*1359 FILLER_47_181
*1360 FILLER_47_193
*1361 FILLER_47_205
*1362 FILLER_47_217
*1363 FILLER_47_223
*1364 FILLER_47_225
*1365 FILLER_47_237
*1366 FILLER_47_249
*1367 FILLER_47_261
*1368 FILLER_47_27
*1369 FILLER_47_273
*1370 FILLER_47_279
*1371 FILLER_47_281
*1372 FILLER_47_293
*1373 FILLER_47_3
*1374 FILLER_47_39
*1375 FILLER_47_51
*1376 FILLER_47_55
*1377 FILLER_47_57
*1378 FILLER_47_69
*1379 FILLER_47_81
*1380 FILLER_47_93
*1381 FILLER_48_109
*1382 FILLER_48_121
*1383 FILLER_48_133
*1384 FILLER_48_139
*1385 FILLER_48_141
*1386 FILLER_48_15
*1387 FILLER_48_153
*1388 FILLER_48_165
*1389 FILLER_48_177
*1390 FILLER_48_189
*1391 FILLER_48_195
*1392 FILLER_48_197
*1393 FILLER_48_209
*1394 FILLER_48_221
*1395 FILLER_48_233
*1396 FILLER_48_245
*1397 FILLER_48_251
*1398 FILLER_48_253
*1399 FILLER_48_265
*1400 FILLER_48_27
*1401 FILLER_48_277
*1402 FILLER_48_289
*1403 FILLER_48_29
*1404 FILLER_48_297
*1405 FILLER_48_3
*1406 FILLER_48_41
*1407 FILLER_48_53
*1408 FILLER_48_65
*1409 FILLER_48_77
*1410 FILLER_48_83
*1411 FILLER_48_85
*1412 FILLER_48_97
*1413 FILLER_49_105
*1414 FILLER_49_111
*1415 FILLER_49_113
*1416 FILLER_49_125
*1417 FILLER_49_137
*1418 FILLER_49_149
*1419 FILLER_49_15
*1420 FILLER_49_161
*1421 FILLER_49_167
*1422 FILLER_49_169
*1423 FILLER_49_181
*1424 FILLER_49_193
*1425 FILLER_49_205
*1426 FILLER_49_217
*1427 FILLER_49_223
*1428 FILLER_49_225
*1429 FILLER_49_237
*1430 FILLER_49_249
*1431 FILLER_49_261
*1432 FILLER_49_27
*1433 FILLER_49_273
*1434 FILLER_49_279
*1435 FILLER_49_281
*1436 FILLER_49_293
*1437 FILLER_49_3
*1438 FILLER_49_39
*1439 FILLER_49_51
*1440 FILLER_49_55
*1441 FILLER_49_57
*1442 FILLER_49_69
*1443 FILLER_49_81
*1444 FILLER_49_93
*1445 FILLER_4_109
*1446 FILLER_4_121
*1447 FILLER_4_133
*1448 FILLER_4_139
*1449 FILLER_4_141
*1450 FILLER_4_153
*1451 FILLER_4_165
*1452 FILLER_4_177
*1453 FILLER_4_189
*1454 FILLER_4_195
*1455 FILLER_4_197
*1456 FILLER_4_20
*1457 FILLER_4_209
*1458 FILLER_4_221
*1459 FILLER_4_233
*1460 FILLER_4_245
*1461 FILLER_4_251
*1462 FILLER_4_253
*1463 FILLER_4_265
*1464 FILLER_4_277
*1465 FILLER_4_289
*1466 FILLER_4_29
*1467 FILLER_4_297
*1468 FILLER_4_3
*1469 FILLER_4_41
*1470 FILLER_4_53
*1471 FILLER_4_65
*1472 FILLER_4_77
*1473 FILLER_4_83
*1474 FILLER_4_85
*1475 FILLER_4_97
*1476 FILLER_50_109
*1477 FILLER_50_121
*1478 FILLER_50_133
*1479 FILLER_50_139
*1480 FILLER_50_141
*1481 FILLER_50_15
*1482 FILLER_50_153
*1483 FILLER_50_165
*1484 FILLER_50_177
*1485 FILLER_50_189
*1486 FILLER_50_195
*1487 FILLER_50_197
*1488 FILLER_50_209
*1489 FILLER_50_221
*1490 FILLER_50_233
*1491 FILLER_50_245
*1492 FILLER_50_251
*1493 FILLER_50_253
*1494 FILLER_50_265
*1495 FILLER_50_27
*1496 FILLER_50_277
*1497 FILLER_50_289
*1498 FILLER_50_29
*1499 FILLER_50_297
*1500 FILLER_50_3
*1501 FILLER_50_41
*1502 FILLER_50_53
*1503 FILLER_50_65
*1504 FILLER_50_77
*1505 FILLER_50_83
*1506 FILLER_50_85
*1507 FILLER_50_97
*1508 FILLER_51_105
*1509 FILLER_51_111
*1510 FILLER_51_113
*1511 FILLER_51_125
*1512 FILLER_51_137
*1513 FILLER_51_149
*1514 FILLER_51_15
*1515 FILLER_51_161
*1516 FILLER_51_167
*1517 FILLER_51_169
*1518 FILLER_51_181
*1519 FILLER_51_193
*1520 FILLER_51_205
*1521 FILLER_51_217
*1522 FILLER_51_223
*1523 FILLER_51_225
*1524 FILLER_51_237
*1525 FILLER_51_249
*1526 FILLER_51_261
*1527 FILLER_51_27
*1528 FILLER_51_273
*1529 FILLER_51_279
*1530 FILLER_51_281
*1531 FILLER_51_293
*1532 FILLER_51_3
*1533 FILLER_51_39
*1534 FILLER_51_51
*1535 FILLER_51_55
*1536 FILLER_51_57
*1537 FILLER_51_69
*1538 FILLER_51_81
*1539 FILLER_51_93
*1540 FILLER_52_109
*1541 FILLER_52_121
*1542 FILLER_52_133
*1543 FILLER_52_139
*1544 FILLER_52_141
*1545 FILLER_52_15
*1546 FILLER_52_153
*1547 FILLER_52_165
*1548 FILLER_52_177
*1549 FILLER_52_189
*1550 FILLER_52_195
*1551 FILLER_52_197
*1552 FILLER_52_209
*1553 FILLER_52_221
*1554 FILLER_52_233
*1555 FILLER_52_245
*1556 FILLER_52_251
*1557 FILLER_52_253
*1558 FILLER_52_265
*1559 FILLER_52_27
*1560 FILLER_52_277
*1561 FILLER_52_289
*1562 FILLER_52_29
*1563 FILLER_52_297
*1564 FILLER_52_3
*1565 FILLER_52_41
*1566 FILLER_52_53
*1567 FILLER_52_65
*1568 FILLER_52_77
*1569 FILLER_52_83
*1570 FILLER_52_85
*1571 FILLER_52_97
*1572 FILLER_53_105
*1573 FILLER_53_111
*1574 FILLER_53_113
*1575 FILLER_53_125
*1576 FILLER_53_137
*1577 FILLER_53_149
*1578 FILLER_53_15
*1579 FILLER_53_161
*1580 FILLER_53_167
*1581 FILLER_53_169
*1582 FILLER_53_181
*1583 FILLER_53_193
*1584 FILLER_53_205
*1585 FILLER_53_217
*1586 FILLER_53_223
*1587 FILLER_53_225
*1588 FILLER_53_237
*1589 FILLER_53_249
*1590 FILLER_53_261
*1591 FILLER_53_27
*1592 FILLER_53_273
*1593 FILLER_53_279