*SPEF "ieee 1481-1999"
*DESIGN "rolfmobile99_alu_fsm_top"
*DATE "11:11:11 Fri 11 11, 1111"
*VENDOR "OpenRCX"
*PROGRAM "Parallel Extraction"
*VERSION "1.0"
*DESIGN_FLOW "NAME_SCOPE LOCAL" "PIN_CAP NONE"
*DIVIDER /
*DELIMITER :
*BUS_DELIMITER []
*T_UNIT 1 NS
*C_UNIT 1 PF
*R_UNIT 1 OHM
*L_UNIT 1 HENRY

*NAME_MAP
*1 io_in[0]
*2 io_in[1]
*3 io_in[2]
*4 io_in[3]
*5 io_in[4]
*6 io_in[5]
*7 io_in[6]
*8 io_in[7]
*9 io_out[0]
*10 io_out[1]
*11 io_out[2]
*12 io_out[3]
*13 io_out[4]
*14 net12
*15 net13
*16 net14
*19 _000_
*20 _001_
*21 _002_
*22 _003_
*23 _004_
*24 _005_
*25 _006_
*26 _007_
*27 _008_
*28 _009_
*29 _010_
*30 _011_
*31 _012_
*32 _013_
*33 _014_
*34 _015_
*35 _016_
*36 _017_
*37 _018_
*38 _019_
*39 _020_
*40 _021_
*41 _022_
*42 _023_
*43 _024_
*44 _025_
*45 _026_
*46 _027_
*47 _028_
*48 _029_
*49 _030_
*50 _031_
*51 _032_
*52 _033_
*53 _034_
*54 _035_
*55 _036_
*56 _037_
*57 _038_
*58 _039_
*59 _040_
*60 _041_
*61 _042_
*62 _043_
*63 _044_
*64 _045_
*65 _046_
*66 _047_
*67 _048_
*68 _049_
*69 _050_
*70 _051_
*71 _052_
*72 _053_
*73 _054_
*74 _055_
*75 _056_
*76 _057_
*77 _058_
*78 _059_
*79 _060_
*80 alu\.a\[0\]
*81 alu\.a\[1\]
*82 alu\.a\[2\]
*83 alu\.a\[3\]
*84 alu\.b\[0\]
*85 alu\.b\[1\]
*86 alu\.b\[2\]
*87 alu\.b\[3\]
*88 alu\.co
*89 alu\.op
*90 alu_fsm\.curstate\[0\]
*91 alu_fsm\.curstate\[1\]
*92 alu_fsm\.curstate\[2\]
*93 alu_fsm\.nextstate\[0\]
*94 alu_fsm\.nextstate\[1\]
*95 alu_fsm\.nextstate\[2\]
*96 clknet_0_io_in[0]
*97 clknet_1_0__leaf_io_in[0]
*98 clknet_1_1__leaf_io_in[0]
*99 net1
*100 net10
*101 net11
*102 net2
*103 net3
*104 net4
*105 net5
*106 net6
*107 net7
*108 net8
*109 net9
*110 FILLER_0_109
*111 FILLER_0_113
*112 FILLER_0_125
*113 FILLER_0_137
*114 FILLER_0_141
*115 FILLER_0_153
*116 FILLER_0_165
*117 FILLER_0_169
*118 FILLER_0_181
*119 FILLER_0_193
*120 FILLER_0_197
*121 FILLER_0_209
*122 FILLER_0_221
*123 FILLER_0_225
*124 FILLER_0_237
*125 FILLER_0_24
*126 FILLER_0_249
*127 FILLER_0_253
*128 FILLER_0_265
*129 FILLER_0_277
*130 FILLER_0_281
*131 FILLER_0_29
*132 FILLER_0_293
*133 FILLER_0_3
*134 FILLER_0_52
*135 FILLER_0_57
*136 FILLER_0_69
*137 FILLER_0_81
*138 FILLER_0_85
*139 FILLER_0_97
*140 FILLER_10_109
*141 FILLER_10_11
*142 FILLER_10_121
*143 FILLER_10_133
*144 FILLER_10_139
*145 FILLER_10_141
*146 FILLER_10_153
*147 FILLER_10_165
*148 FILLER_10_177
*149 FILLER_10_189
*150 FILLER_10_195
*151 FILLER_10_197
*152 FILLER_10_209
*153 FILLER_10_221
*154 FILLER_10_23
*155 FILLER_10_233
*156 FILLER_10_245
*157 FILLER_10_251
*158 FILLER_10_253
*159 FILLER_10_265
*160 FILLER_10_27
*161 FILLER_10_277
*162 FILLER_10_289
*163 FILLER_10_29
*164 FILLER_10_297
*165 FILLER_10_3
*166 FILLER_10_41
*167 FILLER_10_53
*168 FILLER_10_65
*169 FILLER_10_77
*170 FILLER_10_83
*171 FILLER_10_85
*172 FILLER_10_97
*173 FILLER_11_105
*174 FILLER_11_111
*175 FILLER_11_113
*176 FILLER_11_125
*177 FILLER_11_137
*178 FILLER_11_149
*179 FILLER_11_15
*180 FILLER_11_161
*181 FILLER_11_167
*182 FILLER_11_169
*183 FILLER_11_181
*184 FILLER_11_193
*185 FILLER_11_205
*186 FILLER_11_217
*187 FILLER_11_223
*188 FILLER_11_225
*189 FILLER_11_237
*190 FILLER_11_249
*191 FILLER_11_261
*192 FILLER_11_27
*193 FILLER_11_273
*194 FILLER_11_279
*195 FILLER_11_281
*196 FILLER_11_293
*197 FILLER_11_3
*198 FILLER_11_39
*199 FILLER_11_51
*200 FILLER_11_55
*201 FILLER_11_57
*202 FILLER_11_69
*203 FILLER_11_81
*204 FILLER_11_93
*205 FILLER_12_109
*206 FILLER_12_12
*207 FILLER_12_121
*208 FILLER_12_133
*209 FILLER_12_139
*210 FILLER_12_141
*211 FILLER_12_153
*212 FILLER_12_165
*213 FILLER_12_177
*214 FILLER_12_189
*215 FILLER_12_195
*216 FILLER_12_197
*217 FILLER_12_209
*218 FILLER_12_22
*219 FILLER_12_221
*220 FILLER_12_233
*221 FILLER_12_245
*222 FILLER_12_251
*223 FILLER_12_253
*224 FILLER_12_265
*225 FILLER_12_277
*226 FILLER_12_289
*227 FILLER_12_29
*228 FILLER_12_297
*229 FILLER_12_41
*230 FILLER_12_53
*231 FILLER_12_6
*232 FILLER_12_65
*233 FILLER_12_77
*234 FILLER_12_83
*235 FILLER_12_85
*236 FILLER_12_97
*237 FILLER_13_105
*238 FILLER_13_111
*239 FILLER_13_113
*240 FILLER_13_125
*241 FILLER_13_137
*242 FILLER_13_149
*243 FILLER_13_161
*244 FILLER_13_167
*245 FILLER_13_169
*246 FILLER_13_181
*247 FILLER_13_193
*248 FILLER_13_20
*249 FILLER_13_205
*250 FILLER_13_217
*251 FILLER_13_223
*252 FILLER_13_225
*253 FILLER_13_237
*254 FILLER_13_249
*255 FILLER_13_261
*256 FILLER_13_273
*257 FILLER_13_279
*258 FILLER_13_281
*259 FILLER_13_293
*260 FILLER_13_3
*261 FILLER_13_32
*262 FILLER_13_44
*263 FILLER_13_57
*264 FILLER_13_69
*265 FILLER_13_81
*266 FILLER_13_93
*267 FILLER_14_109
*268 FILLER_14_121
*269 FILLER_14_133
*270 FILLER_14_139
*271 FILLER_14_141
*272 FILLER_14_153
*273 FILLER_14_165
*274 FILLER_14_177
*275 FILLER_14_189
*276 FILLER_14_195
*277 FILLER_14_197
*278 FILLER_14_20
*279 FILLER_14_209
*280 FILLER_14_221
*281 FILLER_14_233
*282 FILLER_14_245
*283 FILLER_14_251
*284 FILLER_14_253
*285 FILLER_14_265
*286 FILLER_14_277
*287 FILLER_14_289
*288 FILLER_14_297
*289 FILLER_14_3
*290 FILLER_14_49
*291 FILLER_14_61
*292 FILLER_14_73
*293 FILLER_14_81
*294 FILLER_14_85
*295 FILLER_14_97
*296 FILLER_15_105
*297 FILLER_15_111
*298 FILLER_15_113
*299 FILLER_15_125
*300 FILLER_15_137
*301 FILLER_15_14
*302 FILLER_15_149
*303 FILLER_15_161
*304 FILLER_15_167
*305 FILLER_15_169
*306 FILLER_15_181
*307 FILLER_15_193
*308 FILLER_15_205
*309 FILLER_15_21
*310 FILLER_15_217
*311 FILLER_15_223
*312 FILLER_15_225
*313 FILLER_15_237
*314 FILLER_15_249
*315 FILLER_15_25
*316 FILLER_15_261
*317 FILLER_15_273
*318 FILLER_15_279
*319 FILLER_15_281
*320 FILLER_15_293
*321 FILLER_15_3
*322 FILLER_15_46
*323 FILLER_15_54
*324 FILLER_15_57
*325 FILLER_15_69
*326 FILLER_15_81
*327 FILLER_15_93
*328 FILLER_16_109
*329 FILLER_16_121
*330 FILLER_16_13
*331 FILLER_16_133
*332 FILLER_16_139
*333 FILLER_16_141
*334 FILLER_16_153
*335 FILLER_16_165
*336 FILLER_16_177
*337 FILLER_16_189
*338 FILLER_16_195
*339 FILLER_16_197
*340 FILLER_16_20
*341 FILLER_16_209
*342 FILLER_16_221
*343 FILLER_16_233
*344 FILLER_16_245
*345 FILLER_16_251
*346 FILLER_16_253
*347 FILLER_16_265
*348 FILLER_16_277
*349 FILLER_16_289
*350 FILLER_16_297
*351 FILLER_16_3
*352 FILLER_16_32
*353 FILLER_16_38
*354 FILLER_16_43
*355 FILLER_16_55
*356 FILLER_16_67
*357 FILLER_16_79
*358 FILLER_16_83
*359 FILLER_16_85
*360 FILLER_16_97
*361 FILLER_17_105
*362 FILLER_17_111
*363 FILLER_17_113
*364 FILLER_17_125
*365 FILLER_17_137
*366 FILLER_17_149
*367 FILLER_17_15
*368 FILLER_17_161
*369 FILLER_17_167
*370 FILLER_17_169
*371 FILLER_17_181
*372 FILLER_17_193
*373 FILLER_17_205
*374 FILLER_17_217
*375 FILLER_17_22
*376 FILLER_17_223
*377 FILLER_17_225
*378 FILLER_17_237
*379 FILLER_17_249
*380 FILLER_17_261
*381 FILLER_17_273
*382 FILLER_17_279
*383 FILLER_17_281
*384 FILLER_17_293
*385 FILLER_17_3
*386 FILLER_17_46
*387 FILLER_17_54
*388 FILLER_17_57
*389 FILLER_17_69
*390 FILLER_17_8
*391 FILLER_17_81
*392 FILLER_17_93
*393 FILLER_18_109
*394 FILLER_18_121
*395 FILLER_18_133
*396 FILLER_18_139
*397 FILLER_18_141
*398 FILLER_18_15
*399 FILLER_18_153
*400 FILLER_18_165
*401 FILLER_18_177
*402 FILLER_18_189
*403 FILLER_18_19
*404 FILLER_18_195
*405 FILLER_18_197
*406 FILLER_18_209
*407 FILLER_18_221
*408 FILLER_18_23
*409 FILLER_18_233
*410 FILLER_18_245
*411 FILLER_18_251
*412 FILLER_18_253
*413 FILLER_18_265
*414 FILLER_18_27
*415 FILLER_18_277
*416 FILLER_18_289
*417 FILLER_18_29
*418 FILLER_18_297
*419 FILLER_18_3
*420 FILLER_18_41
*421 FILLER_18_53
*422 FILLER_18_65
*423 FILLER_18_77
*424 FILLER_18_83
*425 FILLER_18_85
*426 FILLER_18_97
*427 FILLER_19_105
*428 FILLER_19_111
*429 FILLER_19_113
*430 FILLER_19_125
*431 FILLER_19_137
*432 FILLER_19_149
*433 FILLER_19_15
*434 FILLER_19_161
*435 FILLER_19_167
*436 FILLER_19_169
*437 FILLER_19_181
*438 FILLER_19_193
*439 FILLER_19_205
*440 FILLER_19_217
*441 FILLER_19_22
*442 FILLER_19_223
*443 FILLER_19_225
*444 FILLER_19_237
*445 FILLER_19_249
*446 FILLER_19_261
*447 FILLER_19_273
*448 FILLER_19_279
*449 FILLER_19_281
*450 FILLER_19_293
*451 FILLER_19_3
*452 FILLER_19_46
*453 FILLER_19_54
*454 FILLER_19_57
*455 FILLER_19_69
*456 FILLER_19_81
*457 FILLER_19_93
*458 FILLER_1_105
*459 FILLER_1_111
*460 FILLER_1_113
*461 FILLER_1_12
*462 FILLER_1_125
*463 FILLER_1_137
*464 FILLER_1_149
*465 FILLER_1_161
*466 FILLER_1_167
*467 FILLER_1_169
*468 FILLER_1_181
*469 FILLER_1_193
*470 FILLER_1_20
*471 FILLER_1_205
*472 FILLER_1_217
*473 FILLER_1_223
*474 FILLER_1_225
*475 FILLER_1_237
*476 FILLER_1_249
*477 FILLER_1_261
*478 FILLER_1_273
*479 FILLER_1_279
*480 FILLER_1_281
*481 FILLER_1_293
*482 FILLER_1_42
*483 FILLER_1_54
*484 FILLER_1_57
*485 FILLER_1_69
*486 FILLER_1_81
*487 FILLER_1_93
*488 FILLER_20_10
*489 FILLER_20_109
*490 FILLER_20_121
*491 FILLER_20_133
*492 FILLER_20_139
*493 FILLER_20_14
*494 FILLER_20_141
*495 FILLER_20_153
*496 FILLER_20_165
*497 FILLER_20_177
*498 FILLER_20_189
*499 FILLER_20_195
*500 FILLER_20_197
*501 FILLER_20_209
*502 FILLER_20_221
*503 FILLER_20_233
*504 FILLER_20_245
*505 FILLER_20_251
*506 FILLER_20_253
*507 FILLER_20_26
*508 FILLER_20_265
*509 FILLER_20_277
*510 FILLER_20_289
*511 FILLER_20_297
*512 FILLER_20_32
*513 FILLER_20_40
*514 FILLER_20_45
*515 FILLER_20_54
*516 FILLER_20_6
*517 FILLER_20_67
*518 FILLER_20_79
*519 FILLER_20_83
*520 FILLER_20_85
*521 FILLER_20_97
*522 FILLER_21_105
*523 FILLER_21_111
*524 FILLER_21_113
*525 FILLER_21_125
*526 FILLER_21_137
*527 FILLER_21_149
*528 FILLER_21_161
*529 FILLER_21_167
*530 FILLER_21_169
*531 FILLER_21_18
*532 FILLER_21_181
*533 FILLER_21_193
*534 FILLER_21_205
*535 FILLER_21_217
*536 FILLER_21_223
*537 FILLER_21_225
*538 FILLER_21_237
*539 FILLER_21_249
*540 FILLER_21_26
*541 FILLER_21_261
*542 FILLER_21_273
*543 FILLER_21_279
*544 FILLER_21_281
*545 FILLER_21_293
*546 FILLER_21_3
*547 FILLER_21_48
*548 FILLER_21_57
*549 FILLER_21_69
*550 FILLER_21_81
*551 FILLER_21_93
*552 FILLER_22_109
*553 FILLER_22_121
*554 FILLER_22_13
*555 FILLER_22_133
*556 FILLER_22_139
*557 FILLER_22_141
*558 FILLER_22_153
*559 FILLER_22_165
*560 FILLER_22_177
*561 FILLER_22_189
*562 FILLER_22_195
*563 FILLER_22_197
*564 FILLER_22_209
*565 FILLER_22_221
*566 FILLER_22_233
*567 FILLER_22_245
*568 FILLER_22_25
*569 FILLER_22_251
*570 FILLER_22_253
*571 FILLER_22_265
*572 FILLER_22_277
*573 FILLER_22_289
*574 FILLER_22_297
*575 FILLER_22_3
*576 FILLER_22_32
*577 FILLER_22_47
*578 FILLER_22_57
*579 FILLER_22_69
*580 FILLER_22_7
*581 FILLER_22_81
*582 FILLER_22_85
*583 FILLER_22_97
*584 FILLER_23_111
*585 FILLER_23_113
*586 FILLER_23_125
*587 FILLER_23_137
*588 FILLER_23_149
*589 FILLER_23_161
*590 FILLER_23_167
*591 FILLER_23_169
*592 FILLER_23_181
*593 FILLER_23_193
*594 FILLER_23_205
*595 FILLER_23_217
*596 FILLER_23_223
*597 FILLER_23_225
*598 FILLER_23_237
*599 FILLER_23_249
*600 FILLER_23_25
*601 FILLER_23_261
*602 FILLER_23_273
*603 FILLER_23_279
*604 FILLER_23_281
*605 FILLER_23_293
*606 FILLER_23_3
*607 FILLER_23_49
*608 FILLER_23_55
*609 FILLER_23_63
*610 FILLER_23_75
*611 FILLER_23_87
*612 FILLER_23_99
*613 FILLER_24_109
*614 FILLER_24_121
*615 FILLER_24_13
*616 FILLER_24_133
*617 FILLER_24_139
*618 FILLER_24_141
*619 FILLER_24_153
*620 FILLER_24_165
*621 FILLER_24_177
*622 FILLER_24_189
*623 FILLER_24_195
*624 FILLER_24_197
*625 FILLER_24_209
*626 FILLER_24_221
*627 FILLER_24_233
*628 FILLER_24_24
*629 FILLER_24_245
*630 FILLER_24_251
*631 FILLER_24_253
*632 FILLER_24_265
*633 FILLER_24_277
*634 FILLER_24_289
*635 FILLER_24_297
*636 FILLER_24_49
*637 FILLER_24_57
*638 FILLER_24_65
*639 FILLER_24_77
*640 FILLER_24_83
*641 FILLER_24_85
*642 FILLER_24_97
*643 FILLER_25_108
*644 FILLER_25_113
*645 FILLER_25_125
*646 FILLER_25_137
*647 FILLER_25_149
*648 FILLER_25_15
*649 FILLER_25_161
*650 FILLER_25_167
*651 FILLER_25_169
*652 FILLER_25_181
*653 FILLER_25_193
*654 FILLER_25_205
*655 FILLER_25_217
*656 FILLER_25_223
*657 FILLER_25_225
*658 FILLER_25_23
*659 FILLER_25_237
*660 FILLER_25_249
*661 FILLER_25_261
*662 FILLER_25_273
*663 FILLER_25_279
*664 FILLER_25_281
*665 FILLER_25_29
*666 FILLER_25_293
*667 FILLER_25_36
*668 FILLER_25_48
*669 FILLER_25_60
*670 FILLER_25_72
*671 FILLER_25_84
*672 FILLER_25_96
*673 FILLER_26_109
*674 FILLER_26_121
*675 FILLER_26_133
*676 FILLER_26_139
*677 FILLER_26_141
*678 FILLER_26_153
*679 FILLER_26_165
*680 FILLER_26_177
*681 FILLER_26_189
*682 FILLER_26_195
*683 FILLER_26_197
*684 FILLER_26_209
*685 FILLER_26_221
*686 FILLER_26_23
*687 FILLER_26_233
*688 FILLER_26_245
*689 FILLER_26_251
*690 FILLER_26_253
*691 FILLER_26_265
*692 FILLER_26_27
*693 FILLER_26_277
*694 FILLER_26_289
*695 FILLER_26_297
*696 FILLER_26_3
*697 FILLER_26_39
*698 FILLER_26_51
*699 FILLER_26_62
*700 FILLER_26_66
*701 FILLER_26_70
*702 FILLER_26_77
*703 FILLER_26_8
*704 FILLER_26_83
*705 FILLER_26_85
*706 FILLER_26_97
*707 FILLER_27_105
*708 FILLER_27_111
*709 FILLER_27_113
*710 FILLER_27_125
*711 FILLER_27_137
*712 FILLER_27_149
*713 FILLER_27_15
*714 FILLER_27_161
*715 FILLER_27_167
*716 FILLER_27_169
*717 FILLER_27_181
*718 FILLER_27_193
*719 FILLER_27_205
*720 FILLER_27_217
*721 FILLER_27_223
*722 FILLER_27_225
*723 FILLER_27_237
*724 FILLER_27_24
*725 FILLER_27_249
*726 FILLER_27_261
*727 FILLER_27_273
*728 FILLER_27_279
*729 FILLER_27_281
*730 FILLER_27_293
*731 FILLER_27_30
*732 FILLER_27_51
*733 FILLER_27_55
*734 FILLER_27_57
*735 FILLER_27_69
*736 FILLER_27_81
*737 FILLER_27_93
*738 FILLER_28_109
*739 FILLER_28_121
*740 FILLER_28_133
*741 FILLER_28_139
*742 FILLER_28_141
*743 FILLER_28_153
*744 FILLER_28_165
*745 FILLER_28_177
*746 FILLER_28_189
*747 FILLER_28_195
*748 FILLER_28_197
*749 FILLER_28_209
*750 FILLER_28_221
*751 FILLER_28_233
*752 FILLER_28_24
*753 FILLER_28_245
*754 FILLER_28_251
*755 FILLER_28_253
*756 FILLER_28_265
*757 FILLER_28_277
*758 FILLER_28_289
*759 FILLER_28_29
*760 FILLER_28_297
*761 FILLER_28_35
*762 FILLER_28_42
*763 FILLER_28_54
*764 FILLER_28_6
*765 FILLER_28_66
*766 FILLER_28_80
*767 FILLER_28_85
*768 FILLER_28_97
*769 FILLER_29_100
*770 FILLER_29_113
*771 FILLER_29_125
*772 FILLER_29_137
*773 FILLER_29_149
*774 FILLER_29_15
*775 FILLER_29_161
*776 FILLER_29_167
*777 FILLER_29_169
*778 FILLER_29_181
*779 FILLER_29_19
*780 FILLER_29_193
*781 FILLER_29_205
*782 FILLER_29_217
*783 FILLER_29_223
*784 FILLER_29_225
*785 FILLER_29_23
*786 FILLER_29_237
*787 FILLER_29_249
*788 FILLER_29_261
*789 FILLER_29_273
*790 FILLER_29_279
*791 FILLER_29_281
*792 FILLER_29_293
*793 FILLER_29_3
*794 FILLER_29_31
*795 FILLER_29_52
*796 FILLER_29_64
*797 FILLER_29_76
*798 FILLER_29_88
*799 FILLER_2_109
*800 FILLER_2_121
*801 FILLER_2_133
*802 FILLER_2_139
*803 FILLER_2_141
*804 FILLER_2_153
*805 FILLER_2_165
*806 FILLER_2_177
*807 FILLER_2_189
*808 FILLER_2_195
*809 FILLER_2_197
*810 FILLER_2_209
*811 FILLER_2_221
*812 FILLER_2_233
*813 FILLER_2_24
*814 FILLER_2_245
*815 FILLER_2_251
*816 FILLER_2_253
*817 FILLER_2_265
*818 FILLER_2_277
*819 FILLER_2_289
*820 FILLER_2_29
*821 FILLER_2_297
*822 FILLER_2_3
*823 FILLER_2_39
*824 FILLER_2_51
*825 FILLER_2_63
*826 FILLER_2_75
*827 FILLER_2_83
*828 FILLER_2_85
*829 FILLER_2_97
*830 FILLER_30_109
*831 FILLER_30_121
*832 FILLER_30_133
*833 FILLER_30_139
*834 FILLER_30_141
*835 FILLER_30_15
*836 FILLER_30_153
*837 FILLER_30_165
*838 FILLER_30_177
*839 FILLER_30_189
*840 FILLER_30_195
*841 FILLER_30_197
*842 FILLER_30_209
*843 FILLER_30_221
*844 FILLER_30_233
*845 FILLER_30_245
*846 FILLER_30_251
*847 FILLER_30_253
*848 FILLER_30_265
*849 FILLER_30_27
*850 FILLER_30_277
*851 FILLER_30_289
*852 FILLER_30_297
*853 FILLER_30_3
*854 FILLER_30_35
*855 FILLER_30_50
*856 FILLER_30_62
*857 FILLER_30_74
*858 FILLER_30_82
*859 FILLER_30_85
*860 FILLER_30_97
*861 FILLER_31_110
*862 FILLER_31_113
*863 FILLER_31_125
*864 FILLER_31_13
*865 FILLER_31_137
*866 FILLER_31_149
*867 FILLER_31_161
*868 FILLER_31_167
*869 FILLER_31_169
*870 FILLER_31_181
*871 FILLER_31_193
*872 FILLER_31_205
*873 FILLER_31_217
*874 FILLER_31_223
*875 FILLER_31_225
*876 FILLER_31_237
*877 FILLER_31_249
*878 FILLER_31_25
*879 FILLER_31_261
*880 FILLER_31_273
*881 FILLER_31_279
*882 FILLER_31_281
*883 FILLER_31_293
*884 FILLER_31_3
*885 FILLER_31_33
*886 FILLER_31_45
*887 FILLER_31_52
*888 FILLER_31_62
*889 FILLER_31_74
*890 FILLER_31_86
*891 FILLER_31_98
*892 FILLER_32_109
*893 FILLER_32_121
*894 FILLER_32_133
*895 FILLER_32_139
*896 FILLER_32_141
*897 FILLER_32_15
*898 FILLER_32_153
*899 FILLER_32_165
*900 FILLER_32_177
*901 FILLER_32_189
*902 FILLER_32_195
*903 FILLER_32_197
*904 FILLER_32_209
*905 FILLER_32_221
*906 FILLER_32_233
*907 FILLER_32_245
*908 FILLER_32_251
*909 FILLER_32_253
*910 FILLER_32_265
*911 FILLER_32_27
*912 FILLER_32_277
*913 FILLER_32_289
*914 FILLER_32_29
*915 FILLER_32_297
*916 FILLER_32_3
*917 FILLER_32_41
*918 FILLER_32_52
*919 FILLER_32_64
*920 FILLER_32_76
*921 FILLER_32_85
*922 FILLER_32_97
*923 FILLER_33_105
*924 FILLER_33_111
*925 FILLER_33_113
*926 FILLER_33_125
*927 FILLER_33_137
*928 FILLER_33_149
*929 FILLER_33_15
*930 FILLER_33_161
*931 FILLER_33_167
*932 FILLER_33_169
*933 FILLER_33_181
*934 FILLER_33_193
*935 FILLER_33_205
*936 FILLER_33_217
*937 FILLER_33_223
*938 FILLER_33_225
*939 FILLER_33_23
*940 FILLER_33_237
*941 FILLER_33_249
*942 FILLER_33_261
*943 FILLER_33_273
*944 FILLER_33_279
*945 FILLER_33_281
*946 FILLER_33_293
*947 FILLER_33_3
*948 FILLER_33_39
*949 FILLER_33_43
*950 FILLER_33_49
*951 FILLER_33_55
*952 FILLER_33_57
*953 FILLER_33_69
*954 FILLER_33_81
*955 FILLER_33_93
*956 FILLER_34_109
*957 FILLER_34_12
*958 FILLER_34_121
*959 FILLER_34_133
*960 FILLER_34_139
*961 FILLER_34_141
*962 FILLER_34_153
*963 FILLER_34_165
*964 FILLER_34_177
*965 FILLER_34_189
*966 FILLER_34_195
*967 FILLER_34_197
*968 FILLER_34_209
*969 FILLER_34_221
*970 FILLER_34_233
*971 FILLER_34_24
*972 FILLER_34_245
*973 FILLER_34_251
*974 FILLER_34_253
*975 FILLER_34_265
*976 FILLER_34_277
*977 FILLER_34_289
*978 FILLER_34_297
*979 FILLER_34_3
*980 FILLER_34_36
*981 FILLER_34_45
*982 FILLER_34_57
*983 FILLER_34_69
*984 FILLER_34_81
*985 FILLER_34_85
*986 FILLER_34_97
*987 FILLER_35_105
*988 FILLER_35_111
*989 FILLER_35_113
*990 FILLER_35_125
*991 FILLER_35_137
*992 FILLER_35_149
*993 FILLER_35_161
*994 FILLER_35_167
*995 FILLER_35_169
*996 FILLER_35_181
*997 FILLER_35_193
*998 FILLER_35_205
*999 FILLER_35_217
*1000 FILLER_35_223
*1001 FILLER_35_225
*1002 FILLER_35_237
*1003 FILLER_35_249
*1004 FILLER_35_261
*1005 FILLER_35_27
*1006 FILLER_35_273
*1007 FILLER_35_279
*1008 FILLER_35_281
*1009 FILLER_35_293
*1010 FILLER_35_3
*1011 FILLER_35_36
*1012 FILLER_35_48
*1013 FILLER_35_57
*1014 FILLER_35_69
*1015 FILLER_35_81
*1016 FILLER_35_93
*1017 FILLER_36_109
*1018 FILLER_36_121
*1019 FILLER_36_133
*1020 FILLER_36_139
*1021 FILLER_36_141
*1022 FILLER_36_15
*1023 FILLER_36_153
*1024 FILLER_36_165
*1025 FILLER_36_177
*1026 FILLER_36_189
*1027 FILLER_36_195
*1028 FILLER_36_197
*1029 FILLER_36_209
*1030 FILLER_36_221
*1031 FILLER_36_233
*1032 FILLER_36_24
*1033 FILLER_36_245
*1034 FILLER_36_251
*1035 FILLER_36_253
*1036 FILLER_36_265
*1037 FILLER_36_277
*1038 FILLER_36_289
*1039 FILLER_36_297
*1040 FILLER_36_3
*1041 FILLER_36_44
*1042 FILLER_36_56
*1043 FILLER_36_68
*1044 FILLER_36_80
*1045 FILLER_36_85
*1046 FILLER_36_97
*1047 FILLER_37_105
*1048 FILLER_37_111
*1049 FILLER_37_113
*1050 FILLER_37_125
*1051 FILLER_37_137
*1052 FILLER_37_149
*1053 FILLER_37_161
*1054 FILLER_37_167
*1055 FILLER_37_169
*1056 FILLER_37_181
*1057 FILLER_37_193
*1058 FILLER_37_205
*1059 FILLER_37_217
*1060 FILLER_37_223
*1061 FILLER_37_225
*1062 FILLER_37_237
*1063 FILLER_37_249
*1064 FILLER_37_261
*1065 FILLER_37_27
*1066 FILLER_37_273
*1067 FILLER_37_279
*1068 FILLER_37_281
*1069 FILLER_37_293
*1070 FILLER_37_3
*1071 FILLER_37_38
*1072 FILLER_37_50
*1073 FILLER_37_57
*1074 FILLER_37_69
*1075 FILLER_37_81
*1076 FILLER_37_93
*1077 FILLER_38_109
*1078 FILLER_38_121
*1079 FILLER_38_133
*1080 FILLER_38_139
*1081 FILLER_38_14
*1082 FILLER_38_141
*1083 FILLER_38_153
*1084 FILLER_38_165
*1085 FILLER_38_177
*1086 FILLER_38_189
*1087 FILLER_38_195
*1088 FILLER_38_197
*1089 FILLER_38_209
*1090 FILLER_38_221
*1091 FILLER_38_233
*1092 FILLER_38_245
*1093 FILLER_38_251
*1094 FILLER_38_253
*1095 FILLER_38_26
*1096 FILLER_38_265
*1097 FILLER_38_277
*1098 FILLER_38_289
*1099 FILLER_38_29
*1100 FILLER_38_297
*1101 FILLER_38_3
*1102 FILLER_38_41
*1103 FILLER_38_53
*1104 FILLER_38_65
*1105 FILLER_38_7
*1106 FILLER_38_77
*1107 FILLER_38_83
*1108 FILLER_38_85
*1109 FILLER_38_97
*1110 FILLER_39_105
*1111 FILLER_39_111
*1112 FILLER_39_113
*1113 FILLER_39_125
*1114 FILLER_39_137
*1115 FILLER_39_149
*1116 FILLER_39_15
*1117 FILLER_39_161
*1118 FILLER_39_167
*1119 FILLER_39_169
*1120 FILLER_39_181
*1121 FILLER_39_193
*1122 FILLER_39_205
*1123 FILLER_39_217
*1124 FILLER_39_223
*1125 FILLER_39_225
*1126 FILLER_39_237
*1127 FILLER_39_249
*1128 FILLER_39_261
*1129 FILLER_39_27
*1130 FILLER_39_273
*1131 FILLER_39_279
*1132 FILLER_39_281
*1133 FILLER_39_293
*1134 FILLER_39_3
*1135 FILLER_39_39
*1136 FILLER_39_51
*1137 FILLER_39_55
*1138 FILLER_39_57
*1139 FILLER_39_69
*1140 FILLER_39_81
*1141 FILLER_39_93
*1142 FILLER_3_105
*1143 FILLER_3_111
*1144 FILLER_3_113
*1145 FILLER_3_125
*1146 FILLER_3_137
*1147 FILLER_3_149
*1148 FILLER_3_161
*1149 FILLER_3_167
*1150 FILLER_3_169
*1151 FILLER_3_181
*1152 FILLER_3_193
*1153 FILLER_3_205
*1154 FILLER_3_217
*1155 FILLER_3_223
*1156 FILLER_3_225
*1157 FILLER_3_237
*1158 FILLER_3_249
*1159 FILLER_3_261
*1160 FILLER_3_273
*1161 FILLER_3_279
*1162 FILLER_3_28
*1163 FILLER_3_281
*1164 FILLER_3_293
*1165 FILLER_3_3
*1166 FILLER_3_35
*1167 FILLER_3_47
*1168 FILLER_3_55
*1169 FILLER_3_57
*1170 FILLER_3_69
*1171 FILLER_3_81
*1172 FILLER_3_93
*1173 FILLER_40_109
*1174 FILLER_40_121
*1175 FILLER_40_133
*1176 FILLER_40_139
*1177 FILLER_40_141
*1178 FILLER_40_15
*1179 FILLER_40_153
*1180 FILLER_40_165
*1181 FILLER_40_177
*1182 FILLER_40_189
*1183 FILLER_40_195
*1184 FILLER_40_197
*1185 FILLER_40_209
*1186 FILLER_40_221
*1187 FILLER_40_233
*1188 FILLER_40_245
*1189 FILLER_40_251
*1190 FILLER_40_253
*1191 FILLER_40_265
*1192 FILLER_40_27
*1193 FILLER_40_277
*1194 FILLER_40_289
*1195 FILLER_40_29
*1196 FILLER_40_297
*1197 FILLER_40_3
*1198 FILLER_40_41
*1199 FILLER_40_53
*1200 FILLER_40_65
*1201 FILLER_40_77
*1202 FILLER_40_83
*1203 FILLER_40_85
*1204 FILLER_40_97
*1205 FILLER_41_105
*1206 FILLER_41_111
*1207 FILLER_41_113
*1208 FILLER_41_125
*1209 FILLER_41_137
*1210 FILLER_41_149
*1211 FILLER_41_161
*1212 FILLER_41_167
*1213 FILLER_41_169
*1214 FILLER_41_181
*1215 FILLER_41_193
*1216 FILLER_41_205
*1217 FILLER_41_217
*1218 FILLER_41_223
*1219 FILLER_41_225
*1220 FILLER_41_237
*1221 FILLER_41_249
*1222 FILLER_41_261
*1223 FILLER_41_273
*1224 FILLER_41_279
*1225 FILLER_41_281
*1226 FILLER_41_29
*1227 FILLER_41_293
*1228 FILLER_41_3
*1229 FILLER_41_41
*1230 FILLER_41_53
*1231 FILLER_41_57
*1232 FILLER_41_69
*1233 FILLER_41_81
*1234 FILLER_41_93
*1235 FILLER_42_109
*1236 FILLER_42_121
*1237 FILLER_42_133
*1238 FILLER_42_139
*1239 FILLER_42_141
*1240 FILLER_42_15
*1241 FILLER_42_153
*1242 FILLER_42_165
*1243 FILLER_42_177
*1244 FILLER_42_189
*1245 FILLER_42_195
*1246 FILLER_42_197
*1247 FILLER_42_209
*1248 FILLER_42_221
*1249 FILLER_42_233
*1250 FILLER_42_245
*1251 FILLER_42_251
*1252 FILLER_42_253
*1253 FILLER_42_265
*1254 FILLER_42_27
*1255 FILLER_42_277
*1256 FILLER_42_289
*1257 FILLER_42_29
*1258 FILLER_42_297
*1259 FILLER_42_3
*1260 FILLER_42_41
*1261 FILLER_42_53
*1262 FILLER_42_65
*1263 FILLER_42_77
*1264 FILLER_42_83
*1265 FILLER_42_85
*1266 FILLER_42_97
*1267 FILLER_43_105
*1268 FILLER_43_111
*1269 FILLER_43_113
*1270 FILLER_43_125
*1271 FILLER_43_137
*1272 FILLER_43_149
*1273 FILLER_43_15
*1274 FILLER_43_161
*1275 FILLER_43_167
*1276 FILLER_43_169
*1277 FILLER_43_181
*1278 FILLER_43_193
*1279 FILLER_43_205
*1280 FILLER_43_217
*1281 FILLER_43_223
*1282 FILLER_43_225
*1283 FILLER_43_237
*1284 FILLER_43_249
*1285 FILLER_43_261
*1286 FILLER_43_27
*1287 FILLER_43_273
*1288 FILLER_43_279
*1289 FILLER_43_281
*1290 FILLER_43_293
*1291 FILLER_43_3
*1292 FILLER_43_39
*1293 FILLER_43_51
*1294 FILLER_43_55
*1295 FILLER_43_57
*1296 FILLER_43_69
*1297 FILLER_43_81
*1298 FILLER_43_93
*1299 FILLER_44_109
*1300 FILLER_44_121
*1301 FILLER_44_133
*1302 FILLER_44_139
*1303 FILLER_44_141
*1304 FILLER_44_15
*1305 FILLER_44_153
*1306 FILLER_44_165
*1307 FILLER_44_177
*1308 FILLER_44_189
*1309 FILLER_44_195
*1310 FILLER_44_197
*1311 FILLER_44_209
*1312 FILLER_44_221
*1313 FILLER_44_233
*1314 FILLER_44_245
*1315 FILLER_44_251
*1316 FILLER_44_253
*1317 FILLER_44_265
*1318 FILLER_44_27
*1319 FILLER_44_277
*1320 FILLER_44_289
*1321 FILLER_44_29
*1322 FILLER_44_297
*1323 FILLER_44_3
*1324 FILLER_44_41
*1325 FILLER_44_53
*1326 FILLER_44_65
*1327 FILLER_44_77
*1328 FILLER_44_83
*1329 FILLER_44_85
*1330 FILLER_44_97
*1331 FILLER_45_105
*1332 FILLER_45_111
*1333 FILLER_45_113
*1334 FILLER_45_125
*1335 FILLER_45_137
*1336 FILLER_45_149
*1337 FILLER_45_15
*1338 FILLER_45_161
*1339 FILLER_45_167
*1340 FILLER_45_169
*1341 FILLER_45_181
*1342 FILLER_45_193
*1343 FILLER_45_205
*1344 FILLER_45_217
*1345 FILLER_45_223
*1346 FILLER_45_225
*1347 FILLER_45_237
*1348 FILLER_45_249
*1349 FILLER_45_261
*1350 FILLER_45_27
*1351 FILLER_45_273
*1352 FILLER_45_279
*1353 FILLER_45_281
*1354 FILLER_45_293
*1355 FILLER_45_3
*1356 FILLER_45_39
*1357 FILLER_45_51
*1358 FILLER_45_55
*1359 FILLER_45_57
*1360 FILLER_45_69
*1361 FILLER_45_81
*1362 FILLER_45_93
*1363 FILLER_46_109
*1364 FILLER_46_121
*1365 FILLER_46_133
*1366 FILLER_46_139
*1367 FILLER_46_141
*1368 FILLER_46_15
*1369 FILLER_46_153
*1370 FILLER_46_165
*1371 FILLER_46_177
*1372 FILLER_46_189
*1373 FILLER_46_195
*1374 FILLER_46_197
*1375 FILLER_46_209
*1376 FILLER_46_221
*1377 FILLER_46_233
*1378 FILLER_46_245
*1379 FILLER_46_251
*1380 FILLER_46_253
*1381 FILLER_46_265
*1382 FILLER_46_27
*1383 FILLER_46_277
*1384 FILLER_46_289
*1385 FILLER_46_29
*1386 FILLER_46_297
*1387 FILLER_46_3
*1388 FILLER_46_41
*1389 FILLER_46_53
*1390 FILLER_46_65
*1391 FILLER_46_77
*1392 FILLER_46_83
*1393 FILLER_46_85
*1394 FILLER_46_97
*1395 FILLER_47_105
*1396 FILLER_47_111
*1397 FILLER_47_113
*1398 FILLER_47_125
*1399 FILLER_47_137
*1400 FILLER_47_149
*1401 FILLER_47_15
*1402 FILLER_47_161
*1403 FILLER_47_167
*1404 FILLER_47_169
*1405 FILLER_47_181
*1406 FILLER_47_193
*1407 FILLER_47_205
*1408 FILLER_47_217
*1409 FILLER_47_223
*1410 FILLER_47_225
*1411 FILLER_47_237
*1412 FILLER_47_249
*1413 FILLER_47_261
*1414 FILLER_47_27
*1415 FILLER_47_273
*1416 FILLER_47_279
*1417 FILLER_47_281
*1418 FILLER_47_293
*1419 FILLER_47_3
*1420 FILLER_47_39
*1421 FILLER_47_51
*1422 FILLER_47_55
*1423 FILLER_47_57
*1424 FILLER_47_69
*1425 FILLER_47_81
*1426 FILLER_47_93
*1427 FILLER_48_109
*1428 FILLER_48_121
*1429 FILLER_48_133
*1430 FILLER_48_139
*1431 FILLER_48_141
*1432 FILLER_48_15
*1433 FILLER_48_153
*1434 FILLER_48_165
*1435 FILLER_48_177
*1436 FILLER_48_189
*1437 FILLER_48_195
*1438 FILLER_48_197
*1439 FILLER_48_209
*1440 FILLER_48_221
*1441 FILLER_48_233
*1442 FILLER_48_245
*1443 FILLER_48_251
*1444 FILLER_48_253
*1445 FILLER_48_265
*1446 FILLER_48_27
*1447 FILLER_48_277
*1448 FILLER_48_289
*1449 FILLER_48_29
*1450 FILLER_48_297
*1451 FILLER_48_3
*1452 FILLER_48_41
*1453 FILLER_48_53
*1454 FILLER_48_65
*1455 FILLER_48_77
*1456 FILLER_48_83
*1457 FILLER_48_85
*1458 FILLER_48_97
*1459 FILLER_49_105
*1460 FILLER_49_111
*1461 FILLER_49_113
*1462 FILLER_49_125
*1463 FILLER_49_137
*1464 FILLER_49_149
*1465 FILLER_49_15
*1466 FILLER_49_161
*1467 FILLER_49_167
*1468 FILLER_49_169
*1469 FILLER_49_181
*1470 FILLER_49_193
*1471 FILLER_49_205
*1472 FILLER_49_217
*1473 FILLER_49_223
*1474 FILLER_49_225
*1475 FILLER_49_237
*1476 FILLER_49_249
*1477 FILLER_49_261
*1478 FILLER_49_27
*1479 FILLER_49_273
*1480 FILLER_49_279
*1481 FILLER_49_281
*1482 FILLER_49_293
*1483 FILLER_49_3
*1484 FILLER_49_39
*1485 FILLER_49_51
*1486 FILLER_49_55
*1487 FILLER_49_57
*1488 FILLER_49_69
*1489 FILLER_49_81
*1490 FILLER_49_93
*1491 FILLER_4_109
*1492 FILLER_4_121
*1493 FILLER_4_133
*1494 FILLER_4_139
*1495 FILLER_4_141
*1496 FILLER_4_153
*1497 FILLER_4_165
*1498 FILLER_4_177
*1499 FILLER_4_189
*1500 FILLER_4_195
*1501 FILLER_4_197
*1502 FILLER_4_209
*1503 FILLER_4_221
*1504 FILLER_4_233
*1505 FILLER_4_24
*1506 FILLER_4_245
*1507 FILLER_4_251
*1508 FILLER_4_253
*1509 FILLER_4_265
*1510 FILLER_4_277
*1511 FILLER_4_289
*1512 FILLER_4_29
*1513 FILLER_4_297
*1514 FILLER_4_3
*1515 FILLER_4_41
*1516 FILLER_4_53
*1517 FILLER_4_65
*1518 FILLER_4_77
*1519 FILLER_4_83
*1520 FILLER_4_85
*1521 FILLER_4_97
*1522 FILLER_50_109
*1523 FILLER_50_121
*1524 FILLER_50_133
*1525 FILLER_50_139
*1526 FILLER_50_141
*1527 FILLER_50_153
*1528 FILLER_50_165
*1529 FILLER_50_177
*1530 FILLER_50_18
*1531 FILLER_50_189
*1532 FILLER_50_195
*1533 FILLER_50_197
*1534 FILLER_50_209
*1535 FILLER_50_221
*1536 FILLER_50_233
*1537 FILLER_50_245
*1538 FILLER_50_251
*1539 FILLER_50_253
*1540 FILLER_50_26
*1541 FILLER_50_265
*1542 FILLER_50_277
*1543 FILLER_50_289
*1544 FILLER_50_29
*1545 FILLER_50_297
*1546 FILLER_50_41
*1547 FILLER_50_53
*1548 FILLER_50_6
*1549 FILLER_50_65
*1550 FILLER_50_77
*1551 FILLER_50_83
*1552 FILLER_50_85
*1553 FILLER_50_97
*1554 FILLER_51_105
*1555 FILLER_51_111
*1556 FILLER_51_113
*1557 FILLER_51_125
*1558 FILLER_51_137
*1559 FILLER_51_149
*1560 FILLER_51_15
*1561 FILLER_51_161
*1562 FILLER_51_167
*1563 FILLER_51_169
*1564 FILLER_51_181
*1565 FILLER_51_193
*1566 FILLER_51_205
*1567 FILLER_51_217
*1568 FILLER_51_223
*1569 FILLER_51_225
*1570 FILLER_51_237
*1571 FILLER_51_249
*1572 FILLER_51_261
*1573 FILLER_51_27
*1574 FILLER_51_273
*1575 FILLER_51_279
*1576 FILLER_51_281
*1577 FILLER_51_293
*1578 FILLER_51_3
*1579 FILLER_51_39
*1580 FILLER_51_51
*1581 FILLER_51_55
*1582 FILLER_51_57
*1583 FILLER_51_69
*1584 FILLER_51_81
*1585 FILLER_51_93
*1586 FILLER_52_109
*1587 FILLER_52_121
*1588 FILLER_52_133
*1589 FILLER_52_139
*1590 FILLER_52_141
*1591 FILLER_52_15
*1592 FILLER_52_153
*1593 FILLER_52_165
*1594 FILLER_52_177
*1595 FILLER_52_189
*1596 FILLER_52_195
*1597 FILLER_52_197
*1598 FILLER_52_209
*1599 FILLER_52_221
*1600 FILLER_52_233
*1601 FILLER_52_245
*1602 FILLER_52_251
*1603 FILLER_52_253
*1604 FILLER_52_265
*1605 FILLER_52_27