*SPEF "ieee 1481-1999"
*DESIGN "rotary_encoder"
*DATE "11:11:11 Fri 11 11, 1111"
*VENDOR "OpenRCX"
*PROGRAM "Parallel Extraction"
*VERSION "1.0"
*DESIGN_FLOW "NAME_SCOPE LOCAL" "PIN_CAP NONE"
*DIVIDER /
*DELIMITER :
*BUS_DELIMITER []
*T_UNIT 1 NS
*C_UNIT 1 PF
*R_UNIT 1 OHM
*L_UNIT 1 HENRY

*NAME_MAP
*1 io_in[0]
*2 io_in[1]
*3 io_in[2]
*4 io_in[3]
*5 io_in[4]
*6 io_in[5]
*7 io_in[6]
*8 io_in[7]
*9 io_out[0]
*10 io_out[1]
*11 io_out[2]
*12 io_out[3]
*13 io_out[4]
*14 io_out[5]
*15 io_out[6]
*16 net4
*19 _000_
*20 _001_
*21 _002_
*22 _003_
*23 _004_
*24 _005_
*25 _006_
*26 _007_
*27 _008_
*28 _009_
*29 _010_
*30 _011_
*31 _012_
*32 _013_
*33 _014_
*34 _015_
*35 _016_
*36 _017_
*37 _018_
*38 _019_
*39 _020_
*40 _021_
*41 _022_
*42 _023_
*43 _024_
*44 _025_
*45 _026_
*46 _027_
*47 _028_
*48 _029_
*49 _030_
*50 _031_
*51 _032_
*52 _033_
*53 _034_
*54 _035_
*55 _036_
*56 _037_
*57 _038_
*58 _039_
*59 _040_
*60 _041_
*61 _042_
*62 _043_
*63 _044_
*64 _045_
*65 _046_
*66 clknet_0_io_in[0]
*67 clknet_1_0__leaf_io_in[0]
*68 clknet_1_1__leaf_io_in[0]
*69 delay_counter\[0\]
*70 net1
*71 net2
*72 net3
*73 old_value
*74 seg7\.counter\[0\]
*75 seg7\.counter\[1\]
*76 seg7\.counter\[2\]
*77 seg7\.counter\[3\]
*78 FILLER_0_109
*79 FILLER_0_113
*80 FILLER_0_125
*81 FILLER_0_137
*82 FILLER_0_141
*83 FILLER_0_153
*84 FILLER_0_165
*85 FILLER_0_169
*86 FILLER_0_181
*87 FILLER_0_193
*88 FILLER_0_197
*89 FILLER_0_209
*90 FILLER_0_221
*91 FILLER_0_225
*92 FILLER_0_237
*93 FILLER_0_24
*94 FILLER_0_249
*95 FILLER_0_253
*96 FILLER_0_265
*97 FILLER_0_277
*98 FILLER_0_281
*99 FILLER_0_293
*100 FILLER_0_3
*101 FILLER_0_45
*102 FILLER_0_53
*103 FILLER_0_57
*104 FILLER_0_69
*105 FILLER_0_81
*106 FILLER_0_85
*107 FILLER_0_97
*108 FILLER_10_109
*109 FILLER_10_121
*110 FILLER_10_133
*111 FILLER_10_139
*112 FILLER_10_141
*113 FILLER_10_15
*114 FILLER_10_153
*115 FILLER_10_165
*116 FILLER_10_177
*117 FILLER_10_189
*118 FILLER_10_195
*119 FILLER_10_197
*120 FILLER_10_209
*121 FILLER_10_221
*122 FILLER_10_233
*123 FILLER_10_245
*124 FILLER_10_251
*125 FILLER_10_253
*126 FILLER_10_265
*127 FILLER_10_27
*128 FILLER_10_277
*129 FILLER_10_289
*130 FILLER_10_29
*131 FILLER_10_297
*132 FILLER_10_3
*133 FILLER_10_41
*134 FILLER_10_53
*135 FILLER_10_65
*136 FILLER_10_77
*137 FILLER_10_83
*138 FILLER_10_85
*139 FILLER_10_97
*140 FILLER_11_107
*141 FILLER_11_111
*142 FILLER_11_113
*143 FILLER_11_125
*144 FILLER_11_137
*145 FILLER_11_149
*146 FILLER_11_15
*147 FILLER_11_161
*148 FILLER_11_167
*149 FILLER_11_169
*150 FILLER_11_181
*151 FILLER_11_193
*152 FILLER_11_205
*153 FILLER_11_217
*154 FILLER_11_223
*155 FILLER_11_225
*156 FILLER_11_237
*157 FILLER_11_249
*158 FILLER_11_261
*159 FILLER_11_27
*160 FILLER_11_273
*161 FILLER_11_279
*162 FILLER_11_281
*163 FILLER_11_293
*164 FILLER_11_3
*165 FILLER_11_39
*166 FILLER_11_51
*167 FILLER_11_55
*168 FILLER_11_57
*169 FILLER_11_69
*170 FILLER_11_83
*171 FILLER_11_95
*172 FILLER_12_109
*173 FILLER_12_11
*174 FILLER_12_121
*175 FILLER_12_133
*176 FILLER_12_139
*177 FILLER_12_141
*178 FILLER_12_153
*179 FILLER_12_165
*180 FILLER_12_177
*181 FILLER_12_189
*182 FILLER_12_195
*183 FILLER_12_197
*184 FILLER_12_209
*185 FILLER_12_221
*186 FILLER_12_23
*187 FILLER_12_233
*188 FILLER_12_245
*189 FILLER_12_251
*190 FILLER_12_253
*191 FILLER_12_265
*192 FILLER_12_27
*193 FILLER_12_277
*194 FILLER_12_289
*195 FILLER_12_29
*196 FILLER_12_297
*197 FILLER_12_3
*198 FILLER_12_41
*199 FILLER_12_53
*200 FILLER_12_65
*201 FILLER_12_77
*202 FILLER_12_83
*203 FILLER_12_85
*204 FILLER_12_97
*205 FILLER_13_105
*206 FILLER_13_111
*207 FILLER_13_113
*208 FILLER_13_125
*209 FILLER_13_137
*210 FILLER_13_149
*211 FILLER_13_15
*212 FILLER_13_161
*213 FILLER_13_167
*214 FILLER_13_169
*215 FILLER_13_181
*216 FILLER_13_193
*217 FILLER_13_205
*218 FILLER_13_217
*219 FILLER_13_223
*220 FILLER_13_225
*221 FILLER_13_237
*222 FILLER_13_249
*223 FILLER_13_261
*224 FILLER_13_27
*225 FILLER_13_273
*226 FILLER_13_279
*227 FILLER_13_281
*228 FILLER_13_293
*229 FILLER_13_3
*230 FILLER_13_39
*231 FILLER_13_51
*232 FILLER_13_55
*233 FILLER_13_57
*234 FILLER_13_69
*235 FILLER_13_81
*236 FILLER_13_93
*237 FILLER_14_103
*238 FILLER_14_115
*239 FILLER_14_127
*240 FILLER_14_139
*241 FILLER_14_141
*242 FILLER_14_15
*243 FILLER_14_153
*244 FILLER_14_165
*245 FILLER_14_177
*246 FILLER_14_189
*247 FILLER_14_19
*248 FILLER_14_195
*249 FILLER_14_197
*250 FILLER_14_209
*251 FILLER_14_221
*252 FILLER_14_233
*253 FILLER_14_24
*254 FILLER_14_245
*255 FILLER_14_251
*256 FILLER_14_253
*257 FILLER_14_265
*258 FILLER_14_277
*259 FILLER_14_289
*260 FILLER_14_29
*261 FILLER_14_297
*262 FILLER_14_3
*263 FILLER_14_41
*264 FILLER_14_53
*265 FILLER_14_65
*266 FILLER_14_77
*267 FILLER_14_83
*268 FILLER_14_91
*269 FILLER_15_105
*270 FILLER_15_111
*271 FILLER_15_113
*272 FILLER_15_125
*273 FILLER_15_137
*274 FILLER_15_149
*275 FILLER_15_15
*276 FILLER_15_161
*277 FILLER_15_167
*278 FILLER_15_169
*279 FILLER_15_181
*280 FILLER_15_19
*281 FILLER_15_193
*282 FILLER_15_205
*283 FILLER_15_217
*284 FILLER_15_223
*285 FILLER_15_225
*286 FILLER_15_237
*287 FILLER_15_249
*288 FILLER_15_261
*289 FILLER_15_27
*290 FILLER_15_273
*291 FILLER_15_279
*292 FILLER_15_281
*293 FILLER_15_293
*294 FILLER_15_3
*295 FILLER_15_41
*296 FILLER_15_53
*297 FILLER_15_57
*298 FILLER_15_69
*299 FILLER_15_81
*300 FILLER_15_93
*301 FILLER_16_109
*302 FILLER_16_121
*303 FILLER_16_133
*304 FILLER_16_139
*305 FILLER_16_141
*306 FILLER_16_153
*307 FILLER_16_165
*308 FILLER_16_177
*309 FILLER_16_189
*310 FILLER_16_19
*311 FILLER_16_195
*312 FILLER_16_197
*313 FILLER_16_209
*314 FILLER_16_221
*315 FILLER_16_233
*316 FILLER_16_245
*317 FILLER_16_251
*318 FILLER_16_253
*319 FILLER_16_265
*320 FILLER_16_27
*321 FILLER_16_277
*322 FILLER_16_289
*323 FILLER_16_29
*324 FILLER_16_297
*325 FILLER_16_3
*326 FILLER_16_37
*327 FILLER_16_49
*328 FILLER_16_61
*329 FILLER_16_73
*330 FILLER_16_81
*331 FILLER_16_85
*332 FILLER_16_97
*333 FILLER_17_105
*334 FILLER_17_111
*335 FILLER_17_113
*336 FILLER_17_125
*337 FILLER_17_137
*338 FILLER_17_149
*339 FILLER_17_161
*340 FILLER_17_167
*341 FILLER_17_169
*342 FILLER_17_18
*343 FILLER_17_181
*344 FILLER_17_193
*345 FILLER_17_205
*346 FILLER_17_217
*347 FILLER_17_223
*348 FILLER_17_225
*349 FILLER_17_237
*350 FILLER_17_249
*351 FILLER_17_261
*352 FILLER_17_273
*353 FILLER_17_279
*354 FILLER_17_281
*355 FILLER_17_293
*356 FILLER_17_3
*357 FILLER_17_30
*358 FILLER_17_42
*359 FILLER_17_51
*360 FILLER_17_55
*361 FILLER_17_57
*362 FILLER_17_69
*363 FILLER_17_8
*364 FILLER_17_81
*365 FILLER_17_93
*366 FILLER_18_109
*367 FILLER_18_121
*368 FILLER_18_133
*369 FILLER_18_139
*370 FILLER_18_141
*371 FILLER_18_15
*372 FILLER_18_153
*373 FILLER_18_165
*374 FILLER_18_177
*375 FILLER_18_189
*376 FILLER_18_195
*377 FILLER_18_197
*378 FILLER_18_209
*379 FILLER_18_221
*380 FILLER_18_233
*381 FILLER_18_245
*382 FILLER_18_251
*383 FILLER_18_253
*384 FILLER_18_265
*385 FILLER_18_27
*386 FILLER_18_277
*387 FILLER_18_289
*388 FILLER_18_29
*389 FILLER_18_297
*390 FILLER_18_3
*391 FILLER_18_41
*392 FILLER_18_53
*393 FILLER_18_65
*394 FILLER_18_77
*395 FILLER_18_83
*396 FILLER_18_85
*397 FILLER_18_97
*398 FILLER_19_105
*399 FILLER_19_111
*400 FILLER_19_113
*401 FILLER_19_125
*402 FILLER_19_137
*403 FILLER_19_149
*404 FILLER_19_15
*405 FILLER_19_161
*406 FILLER_19_167
*407 FILLER_19_169
*408 FILLER_19_181
*409 FILLER_19_193
*410 FILLER_19_205
*411 FILLER_19_217
*412 FILLER_19_223
*413 FILLER_19_225
*414 FILLER_19_237
*415 FILLER_19_249
*416 FILLER_19_261
*417 FILLER_19_27
*418 FILLER_19_273
*419 FILLER_19_279
*420 FILLER_19_281
*421 FILLER_19_293
*422 FILLER_19_3
*423 FILLER_19_39
*424 FILLER_19_51
*425 FILLER_19_55
*426 FILLER_19_57
*427 FILLER_19_69
*428 FILLER_19_81
*429 FILLER_19_93
*430 FILLER_1_105
*431 FILLER_1_111
*432 FILLER_1_113
*433 FILLER_1_125
*434 FILLER_1_137
*435 FILLER_1_149
*436 FILLER_1_15
*437 FILLER_1_161
*438 FILLER_1_167
*439 FILLER_1_169
*440 FILLER_1_181
*441 FILLER_1_193
*442 FILLER_1_205
*443 FILLER_1_217
*444 FILLER_1_223
*445 FILLER_1_225
*446 FILLER_1_237
*447 FILLER_1_249
*448 FILLER_1_261
*449 FILLER_1_273
*450 FILLER_1_279
*451 FILLER_1_281
*452 FILLER_1_293
*453 FILLER_1_3
*454 FILLER_1_37
*455 FILLER_1_49
*456 FILLER_1_55
*457 FILLER_1_57
*458 FILLER_1_69
*459 FILLER_1_81
*460 FILLER_1_93
*461 FILLER_20_109
*462 FILLER_20_121
*463 FILLER_20_133
*464 FILLER_20_139
*465 FILLER_20_141
*466 FILLER_20_15
*467 FILLER_20_153
*468 FILLER_20_165
*469 FILLER_20_177
*470 FILLER_20_189
*471 FILLER_20_195
*472 FILLER_20_197
*473 FILLER_20_209
*474 FILLER_20_221
*475 FILLER_20_233
*476 FILLER_20_245
*477 FILLER_20_251
*478 FILLER_20_253
*479 FILLER_20_265
*480 FILLER_20_27
*481 FILLER_20_277
*482 FILLER_20_289
*483 FILLER_20_297
*484 FILLER_20_3
*485 FILLER_20_37
*486 FILLER_20_49
*487 FILLER_20_61
*488 FILLER_20_73
*489 FILLER_20_81
*490 FILLER_20_85
*491 FILLER_20_97
*492 FILLER_21_105
*493 FILLER_21_11
*494 FILLER_21_111
*495 FILLER_21_113
*496 FILLER_21_125
*497 FILLER_21_137
*498 FILLER_21_149
*499 FILLER_21_161
*500 FILLER_21_167
*501 FILLER_21_169
*502 FILLER_21_181
*503 FILLER_21_193
*504 FILLER_21_205
*505 FILLER_21_217
*506 FILLER_21_223
*507 FILLER_21_225
*508 FILLER_21_23
*509 FILLER_21_237
*510 FILLER_21_249
*511 FILLER_21_261
*512 FILLER_21_273
*513 FILLER_21_279
*514 FILLER_21_281
*515 FILLER_21_293
*516 FILLER_21_3
*517 FILLER_21_35
*518 FILLER_21_47
*519 FILLER_21_55
*520 FILLER_21_57
*521 FILLER_21_69
*522 FILLER_21_81
*523 FILLER_21_93
*524 FILLER_22_109
*525 FILLER_22_121
*526 FILLER_22_133
*527 FILLER_22_139
*528 FILLER_22_141
*529 FILLER_22_15
*530 FILLER_22_153
*531 FILLER_22_165
*532 FILLER_22_177
*533 FILLER_22_189
*534 FILLER_22_195
*535 FILLER_22_197
*536 FILLER_22_209
*537 FILLER_22_221
*538 FILLER_22_233
*539 FILLER_22_245
*540 FILLER_22_251
*541 FILLER_22_253
*542 FILLER_22_265
*543 FILLER_22_27
*544 FILLER_22_277
*545 FILLER_22_289
*546 FILLER_22_29
*547 FILLER_22_297
*548 FILLER_22_3
*549 FILLER_22_41
*550 FILLER_22_53
*551 FILLER_22_65
*552 FILLER_22_77
*553 FILLER_22_83
*554 FILLER_22_85
*555 FILLER_22_97
*556 FILLER_23_105
*557 FILLER_23_111
*558 FILLER_23_113
*559 FILLER_23_125
*560 FILLER_23_137
*561 FILLER_23_149
*562 FILLER_23_16
*563 FILLER_23_161
*564 FILLER_23_167
*565 FILLER_23_169
*566 FILLER_23_181
*567 FILLER_23_193
*568 FILLER_23_205
*569 FILLER_23_217
*570 FILLER_23_223
*571 FILLER_23_225
*572 FILLER_23_237
*573 FILLER_23_249
*574 FILLER_23_261
*575 FILLER_23_273
*576 FILLER_23_279
*577 FILLER_23_28
*578 FILLER_23_281
*579 FILLER_23_293
*580 FILLER_23_40
*581 FILLER_23_46
*582 FILLER_23_50
*583 FILLER_23_57
*584 FILLER_23_69
*585 FILLER_23_81
*586 FILLER_23_93
*587 FILLER_24_109
*588 FILLER_24_121
*589 FILLER_24_133
*590 FILLER_24_139
*591 FILLER_24_14
*592 FILLER_24_141
*593 FILLER_24_153
*594 FILLER_24_165
*595 FILLER_24_177
*596 FILLER_24_189
*597 FILLER_24_195
*598 FILLER_24_197
*599 FILLER_24_209
*600 FILLER_24_221
*601 FILLER_24_233
*602 FILLER_24_245
*603 FILLER_24_251
*604 FILLER_24_253
*605 FILLER_24_26
*606 FILLER_24_265
*607 FILLER_24_277
*608 FILLER_24_289
*609 FILLER_24_29
*610 FILLER_24_297
*611 FILLER_24_3
*612 FILLER_24_42
*613 FILLER_24_54
*614 FILLER_24_66
*615 FILLER_24_78
*616 FILLER_24_85
*617 FILLER_24_97
*618 FILLER_25_105
*619 FILLER_25_111
*620 FILLER_25_113
*621 FILLER_25_125
*622 FILLER_25_137
*623 FILLER_25_149
*624 FILLER_25_15
*625 FILLER_25_161
*626 FILLER_25_167
*627 FILLER_25_169
*628 FILLER_25_181
*629 FILLER_25_193
*630 FILLER_25_205
*631 FILLER_25_21
*632 FILLER_25_217
*633 FILLER_25_223
*634 FILLER_25_225
*635 FILLER_25_237
*636 FILLER_25_249
*637 FILLER_25_26
*638 FILLER_25_261
*639 FILLER_25_273
*640 FILLER_25_279
*641 FILLER_25_281
*642 FILLER_25_293
*643 FILLER_25_3
*644 FILLER_25_38
*645 FILLER_25_50
*646 FILLER_25_57
*647 FILLER_25_69
*648 FILLER_25_81
*649 FILLER_25_93
*650 FILLER_26_109
*651 FILLER_26_121
*652 FILLER_26_13
*653 FILLER_26_133
*654 FILLER_26_139
*655 FILLER_26_141
*656 FILLER_26_153
*657 FILLER_26_165
*658 FILLER_26_177
*659 FILLER_26_189
*660 FILLER_26_195
*661 FILLER_26_197
*662 FILLER_26_209
*663 FILLER_26_221
*664 FILLER_26_233
*665 FILLER_26_245
*666 FILLER_26_25
*667 FILLER_26_251
*668 FILLER_26_253
*669 FILLER_26_265
*670 FILLER_26_277
*671 FILLER_26_289
*672 FILLER_26_297
*673 FILLER_26_3
*674 FILLER_26_34
*675 FILLER_26_46
*676 FILLER_26_58
*677 FILLER_26_70
*678 FILLER_26_82
*679 FILLER_26_85
*680 FILLER_26_97
*681 FILLER_27_100
*682 FILLER_27_113
*683 FILLER_27_125
*684 FILLER_27_13
*685 FILLER_27_137
*686 FILLER_27_149
*687 FILLER_27_161
*688 FILLER_27_167
*689 FILLER_27_169
*690 FILLER_27_17
*691 FILLER_27_181
*692 FILLER_27_193
*693 FILLER_27_205
*694 FILLER_27_217
*695 FILLER_27_223
*696 FILLER_27_225
*697 FILLER_27_237
*698 FILLER_27_249
*699 FILLER_27_25
*700 FILLER_27_261
*701 FILLER_27_273
*702 FILLER_27_279
*703 FILLER_27_281
*704 FILLER_27_293
*705 FILLER_27_3
*706 FILLER_27_34
*707 FILLER_27_46
*708 FILLER_27_54
*709 FILLER_27_64
*710 FILLER_27_76
*711 FILLER_27_88
*712 FILLER_28_109
*713 FILLER_28_11
*714 FILLER_28_121
*715 FILLER_28_133
*716 FILLER_28_139
*717 FILLER_28_141
*718 FILLER_28_153
*719 FILLER_28_165
*720 FILLER_28_177
*721 FILLER_28_18
*722 FILLER_28_189
*723 FILLER_28_195
*724 FILLER_28_197
*725 FILLER_28_209
*726 FILLER_28_221
*727 FILLER_28_233
*728 FILLER_28_245
*729 FILLER_28_251
*730 FILLER_28_253
*731 FILLER_28_26
*732 FILLER_28_265
*733 FILLER_28_277
*734 FILLER_28_289
*735 FILLER_28_297
*736 FILLER_28_3
*737 FILLER_28_39
*738 FILLER_28_51
*739 FILLER_28_63
*740 FILLER_28_75
*741 FILLER_28_83
*742 FILLER_28_85
*743 FILLER_28_97
*744 FILLER_29_109
*745 FILLER_29_113
*746 FILLER_29_125
*747 FILLER_29_137
*748 FILLER_29_149
*749 FILLER_29_15
*750 FILLER_29_161
*751 FILLER_29_167
*752 FILLER_29_169
*753 FILLER_29_181
*754 FILLER_29_193
*755 FILLER_29_205
*756 FILLER_29_217
*757 FILLER_29_223
*758 FILLER_29_225
*759 FILLER_29_237
*760 FILLER_29_24
*761 FILLER_29_249
*762 FILLER_29_261
*763 FILLER_29_273
*764 FILLER_29_279
*765 FILLER_29_281
*766 FILLER_29_293
*767 FILLER_29_3
*768 FILLER_29_38
*769 FILLER_29_50
*770 FILLER_29_61
*771 FILLER_29_73
*772 FILLER_29_85
*773 FILLER_29_97
*774 FILLER_2_109
*775 FILLER_2_121
*776 FILLER_2_133
*777 FILLER_2_139
*778 FILLER_2_141
*779 FILLER_2_153
*780 FILLER_2_165
*781 FILLER_2_177
*782 FILLER_2_189
*783 FILLER_2_195
*784 FILLER_2_197
*785 FILLER_2_209
*786 FILLER_2_221
*787 FILLER_2_233
*788 FILLER_2_24
*789 FILLER_2_245
*790 FILLER_2_251
*791 FILLER_2_253
*792 FILLER_2_265
*793 FILLER_2_277
*794 FILLER_2_289
*795 FILLER_2_29
*796 FILLER_2_297
*797 FILLER_2_3
*798 FILLER_2_53
*799 FILLER_2_65
*800 FILLER_2_77
*801 FILLER_2_83
*802 FILLER_2_85
*803 FILLER_2_97
*804 FILLER_30_109
*805 FILLER_30_11
*806 FILLER_30_121
*807 FILLER_30_133
*808 FILLER_30_139
*809 FILLER_30_141
*810 FILLER_30_153
*811 FILLER_30_165
*812 FILLER_30_17
*813 FILLER_30_177
*814 FILLER_30_189
*815 FILLER_30_195
*816 FILLER_30_197
*817 FILLER_30_209
*818 FILLER_30_21
*819 FILLER_30_221
*820 FILLER_30_233
*821 FILLER_30_245
*822 FILLER_30_251
*823 FILLER_30_253
*824 FILLER_30_265
*825 FILLER_30_27
*826 FILLER_30_277
*827 FILLER_30_289
*828 FILLER_30_297
*829 FILLER_30_3
*830 FILLER_30_36
*831 FILLER_30_50
*832 FILLER_30_62
*833 FILLER_30_74
*834 FILLER_30_82
*835 FILLER_30_85
*836 FILLER_30_97
*837 FILLER_31_105
*838 FILLER_31_111
*839 FILLER_31_113
*840 FILLER_31_125
*841 FILLER_31_13
*842 FILLER_31_137
*843 FILLER_31_149
*844 FILLER_31_161
*845 FILLER_31_167
*846 FILLER_31_169
*847 FILLER_31_181
*848 FILLER_31_193
*849 FILLER_31_205
*850 FILLER_31_217
*851 FILLER_31_223
*852 FILLER_31_225
*853 FILLER_31_23
*854 FILLER_31_237
*855 FILLER_31_249
*856 FILLER_31_261
*857 FILLER_31_273
*858 FILLER_31_279
*859 FILLER_31_281
*860 FILLER_31_293
*861 FILLER_31_3
*862 FILLER_31_34
*863 FILLER_31_46
*864 FILLER_31_54
*865 FILLER_31_57
*866 FILLER_31_69
*867 FILLER_31_81
*868 FILLER_31_93
*869 FILLER_32_109
*870 FILLER_32_11
*871 FILLER_32_121
*872 FILLER_32_133
*873 FILLER_32_139
*874 FILLER_32_141
*875 FILLER_32_153
*876 FILLER_32_165
*877 FILLER_32_177
*878 FILLER_32_189
*879 FILLER_32_19
*880 FILLER_32_195
*881 FILLER_32_197
*882 FILLER_32_209
*883 FILLER_32_221
*884 FILLER_32_233
*885 FILLER_32_245
*886 FILLER_32_251
*887 FILLER_32_253
*888 FILLER_32_265
*889 FILLER_32_27
*890 FILLER_32_277
*891 FILLER_32_289
*892 FILLER_32_297
*893 FILLER_32_3
*894 FILLER_32_36
*895 FILLER_32_50
*896 FILLER_32_62
*897 FILLER_32_74
*898 FILLER_32_82
*899 FILLER_32_85
*900 FILLER_32_97
*901 FILLER_33_105
*902 FILLER_33_111
*903 FILLER_33_113
*904 FILLER_33_125
*905 FILLER_33_137
*906 FILLER_33_149
*907 FILLER_33_161
*908 FILLER_33_167
*909 FILLER_33_169
*910 FILLER_33_181
*911 FILLER_33_19
*912 FILLER_33_193
*913 FILLER_33_205
*914 FILLER_33_217
*915 FILLER_33_223
*916 FILLER_33_225
*917 FILLER_33_237
*918 FILLER_33_249
*919 FILLER_33_261
*920 FILLER_33_27
*921 FILLER_33_273
*922 FILLER_33_279
*923 FILLER_33_281
*924 FILLER_33_293
*925 FILLER_33_33
*926 FILLER_33_45
*927 FILLER_33_53
*928 FILLER_33_57
*929 FILLER_33_69
*930 FILLER_33_7
*931 FILLER_33_81
*932 FILLER_33_93
*933 FILLER_34_109
*934 FILLER_34_121
*935 FILLER_34_133
*936 FILLER_34_139
*937 FILLER_34_141
*938 FILLER_34_153
*939 FILLER_34_165
*940 FILLER_34_177
*941 FILLER_34_189
*942 FILLER_34_195
*943 FILLER_34_197
*944 FILLER_34_209
*945 FILLER_34_21
*946 FILLER_34_221
*947 FILLER_34_233
*948 FILLER_34_245
*949 FILLER_34_251
*950 FILLER_34_253
*951 FILLER_34_265
*952 FILLER_34_27
*953 FILLER_34_277
*954 FILLER_34_289
*955 FILLER_34_297
*956 FILLER_34_3
*957 FILLER_34_39
*958 FILLER_34_51
*959 FILLER_34_63
*960 FILLER_34_75
*961 FILLER_34_83
*962 FILLER_34_85
*963 FILLER_34_97
*964 FILLER_35_105
*965 FILLER_35_111
*966 FILLER_35_113
*967 FILLER_35_125
*968 FILLER_35_137
*969 FILLER_35_149
*970 FILLER_35_15
*971 FILLER_35_161
*972 FILLER_35_167
*973 FILLER_35_169
*974 FILLER_35_181
*975 FILLER_35_193
*976 FILLER_35_205
*977 FILLER_35_217
*978 FILLER_35_223
*979 FILLER_35_225
*980 FILLER_35_237
*981 FILLER_35_249
*982 FILLER_35_261
*983 FILLER_35_27
*984 FILLER_35_273
*985 FILLER_35_279
*986 FILLER_35_281
*987 FILLER_35_293
*988 FILLER_35_3
*989 FILLER_35_35
*990 FILLER_35_40
*991 FILLER_35_52
*992 FILLER_35_57
*993 FILLER_35_69
*994 FILLER_35_81
*995 FILLER_35_93
*996 FILLER_36_109
*997 FILLER_36_12
*998 FILLER_36_121
*999 FILLER_36_133
*1000 FILLER_36_139
*1001 FILLER_36_141
*1002 FILLER_36_153
*1003 FILLER_36_165
*1004 FILLER_36_177
*1005 FILLER_36_189
*1006 FILLER_36_195
*1007 FILLER_36_197
*1008 FILLER_36_209
*1009 FILLER_36_221
*1010 FILLER_36_233
*1011 FILLER_36_24
*1012 FILLER_36_245
*1013 FILLER_36_251
*1014 FILLER_36_253
*1015 FILLER_36_265
*1016 FILLER_36_277
*1017 FILLER_36_289
*1018 FILLER_36_29
*1019 FILLER_36_297
*1020 FILLER_36_3
*1021 FILLER_36_41
*1022 FILLER_36_53
*1023 FILLER_36_65
*1024 FILLER_36_77
*1025 FILLER_36_83
*1026 FILLER_36_85
*1027 FILLER_36_97
*1028 FILLER_37_105
*1029 FILLER_37_111
*1030 FILLER_37_113
*1031 FILLER_37_125
*1032 FILLER_37_137
*1033 FILLER_37_149
*1034 FILLER_37_161
*1035 FILLER_37_167
*1036 FILLER_37_169
*1037 FILLER_37_181
*1038 FILLER_37_193
*1039 FILLER_37_205
*1040 FILLER_37_217
*1041 FILLER_37_223
*1042 FILLER_37_225
*1043 FILLER_37_237
*1044 FILLER_37_24
*1045 FILLER_37_249
*1046 FILLER_37_261
*1047 FILLER_37_273
*1048 FILLER_37_279
*1049 FILLER_37_281
*1050 FILLER_37_293
*1051 FILLER_37_3
*1052 FILLER_37_35
*1053 FILLER_37_47
*1054 FILLER_37_55
*1055 FILLER_37_57
*1056 FILLER_37_69
*1057 FILLER_37_81
*1058 FILLER_37_93
*1059 FILLER_38_109
*1060 FILLER_38_121
*1061 FILLER_38_133
*1062 FILLER_38_139
*1063 FILLER_38_141
*1064 FILLER_38_153
*1065 FILLER_38_165
*1066 FILLER_38_177
*1067 FILLER_38_189
*1068 FILLER_38_195
*1069 FILLER_38_197
*1070 FILLER_38_20
*1071 FILLER_38_209
*1072 FILLER_38_221
*1073 FILLER_38_233
*1074 FILLER_38_245
*1075 FILLER_38_251
*1076 FILLER_38_253
*1077 FILLER_38_265
*1078 FILLER_38_277
*1079 FILLER_38_289
*1080 FILLER_38_297
*1081 FILLER_38_3
*1082 FILLER_38_32
*1083 FILLER_38_44
*1084 FILLER_38_56
*1085 FILLER_38_68
*1086 FILLER_38_8
*1087 FILLER_38_80
*1088 FILLER_38_85
*1089 FILLER_38_97
*1090 FILLER_39_105
*1091 FILLER_39_111
*1092 FILLER_39_113
*1093 FILLER_39_125
*1094 FILLER_39_137
*1095 FILLER_39_149
*1096 FILLER_39_15
*1097 FILLER_39_161
*1098 FILLER_39_167
*1099 FILLER_39_169
*1100 FILLER_39_181
*1101 FILLER_39_193
*1102 FILLER_39_205
*1103 FILLER_39_217
*1104 FILLER_39_223
*1105 FILLER_39_225
*1106 FILLER_39_237
*1107 FILLER_39_249
*1108 FILLER_39_261
*1109 FILLER_39_27
*1110 FILLER_39_273
*1111 FILLER_39_279
*1112 FILLER_39_281
*1113 FILLER_39_293
*1114 FILLER_39_3
*1115 FILLER_39_39
*1116 FILLER_39_51
*1117 FILLER_39_55
*1118 FILLER_39_57
*1119 FILLER_39_69
*1120 FILLER_39_81
*1121 FILLER_39_93
*1122 FILLER_3_105
*1123 FILLER_3_111
*1124 FILLER_3_113
*1125 FILLER_3_125
*1126 FILLER_3_137
*1127 FILLER_3_149
*1128 FILLER_3_161
*1129 FILLER_3_167
*1130 FILLER_3_169
*1131 FILLER_3_181
*1132 FILLER_3_193
*1133 FILLER_3_205
*1134 FILLER_3_217
*1135 FILLER_3_223
*1136 FILLER_3_225
*1137 FILLER_3_237
*1138 FILLER_3_249
*1139 FILLER_3_25
*1140 FILLER_3_261
*1141 FILLER_3_273
*1142 FILLER_3_279
*1143 FILLER_3_281
*1144 FILLER_3_293
*1145 FILLER_3_3
*1146 FILLER_3_45
*1147 FILLER_3_53
*1148 FILLER_3_57
*1149 FILLER_3_69
*1150 FILLER_3_81
*1151 FILLER_3_93
*1152 FILLER_40_109
*1153 FILLER_40_11
*1154 FILLER_40_121
*1155 FILLER_40_133
*1156 FILLER_40_139
*1157 FILLER_40_141
*1158 FILLER_40_153
*1159 FILLER_40_165
*1160 FILLER_40_17
*1161 FILLER_40_177
*1162 FILLER_40_189
*1163 FILLER_40_195
*1164 FILLER_40_197
*1165 FILLER_40_209
*1166 FILLER_40_221
*1167 FILLER_40_233
*1168 FILLER_40_245
*1169 FILLER_40_25
*1170 FILLER_40_251
*1171 FILLER_40_253
*1172 FILLER_40_265
*1173 FILLER_40_277
*1174 FILLER_40_289
*1175 FILLER_40_29
*1176 FILLER_40_297
*1177 FILLER_40_3
*1178 FILLER_40_41
*1179 FILLER_40_53
*1180 FILLER_40_65
*1181 FILLER_40_77
*1182 FILLER_40_83
*1183 FILLER_40_85
*1184 FILLER_40_97
*1185 FILLER_41_105
*1186 FILLER_41_111
*1187 FILLER_41_113
*1188 FILLER_41_125
*1189 FILLER_41_137
*1190 FILLER_41_149
*1191 FILLER_41_15
*1192 FILLER_41_161
*1193 FILLER_41_167
*1194 FILLER_41_169
*1195 FILLER_41_181
*1196 FILLER_41_193
*1197 FILLER_41_205
*1198 FILLER_41_217
*1199 FILLER_41_223
*1200 FILLER_41_225
*1201 FILLER_41_237
*1202 FILLER_41_249
*1203 FILLER_41_261
*1204 FILLER_41_27
*1205 FILLER_41_273
*1206 FILLER_41_279
*1207 FILLER_41_281
*1208 FILLER_41_293
*1209 FILLER_41_3
*1210 FILLER_41_39
*1211 FILLER_41_51
*1212 FILLER_41_55
*1213 FILLER_41_57
*1214 FILLER_41_69
*1215 FILLER_41_81
*1216 FILLER_41_93
*1217 FILLER_42_109
*1218 FILLER_42_121
*1219 FILLER_42_133
*1220 FILLER_42_139
*1221 FILLER_42_141
*1222 FILLER_42_15
*1223 FILLER_42_153
*1224 FILLER_42_165
*1225 FILLER_42_177
*1226 FILLER_42_189
*1227 FILLER_42_195
*1228 FILLER_42_197
*1229 FILLER_42_209
*1230 FILLER_42_221
*1231 FILLER_42_233
*1232 FILLER_42_245
*1233 FILLER_42_251
*1234 FILLER_42_253
*1235 FILLER_42_265
*1236 FILLER_42_27
*1237 FILLER_42_277
*1238 FILLER_42_289
*1239 FILLER_42_29
*1240 FILLER_42_297
*1241 FILLER_42_3
*1242 FILLER_42_41
*1243 FILLER_42_53
*1244 FILLER_42_65
*1245 FILLER_42_77
*1246 FILLER_42_83
*1247 FILLER_42_85
*1248 FILLER_42_97
*1249 FILLER_43_105
*1250 FILLER_43_111
*1251 FILLER_43_113
*1252 FILLER_43_125
*1253 FILLER_43_137
*1254 FILLER_43_149
*1255 FILLER_43_15
*1256 FILLER_43_161
*1257 FILLER_43_167
*1258 FILLER_43_169
*1259 FILLER_43_181
*1260 FILLER_43_193
*1261 FILLER_43_205
*1262 FILLER_43_217
*1263 FILLER_43_223
*1264 FILLER_43_225
*1265 FILLER_43_237
*1266 FILLER_43_249
*1267 FILLER_43_261
*1268 FILLER_43_27
*1269 FILLER_43_273
*1270 FILLER_43_279
*1271 FILLER_43_281
*1272 FILLER_43_293
*1273 FILLER_43_3
*1274 FILLER_43_39
*1275 FILLER_43_51
*1276 FILLER_43_55
*1277 FILLER_43_57
*1278 FILLER_43_69
*1279 FILLER_43_81
*1280 FILLER_43_93
*1281 FILLER_44_109
*1282 FILLER_44_121
*1283 FILLER_44_133
*1284 FILLER_44_139
*1285 FILLER_44_141
*1286 FILLER_44_15
*1287 FILLER_44_153
*1288 FILLER_44_165
*1289 FILLER_44_177
*1290 FILLER_44_189
*1291 FILLER_44_195
*1292 FILLER_44_197
*1293 FILLER_44_209
*1294 FILLER_44_221
*1295 FILLER_44_233
*1296 FILLER_44_245
*1297 FILLER_44_251
*1298 FILLER_44_253
*1299 FILLER_44_265
*1300 FILLER_44_27
*1301 FILLER_44_277
*1302 FILLER_44_289
*1303 FILLER_44_29
*1304 FILLER_44_297
*1305 FILLER_44_3
*1306 FILLER_44_41
*1307 FILLER_44_53
*1308 FILLER_44_65
*1309 FILLER_44_77
*1310 FILLER_44_83
*1311 FILLER_44_85
*1312 FILLER_44_97
*1313 FILLER_45_105
*1314 FILLER_45_111
*1315 FILLER_45_113
*1316 FILLER_45_125
*1317 FILLER_45_137
*1318 FILLER_45_149
*1319 FILLER_45_15
*1320 FILLER_45_161
*1321 FILLER_45_167
*1322 FILLER_45_169
*1323 FILLER_45_181
*1324 FILLER_45_193
*1325 FILLER_45_205
*1326 FILLER_45_217
*1327 FILLER_45_223
*1328 FILLER_45_225
*1329 FILLER_45_237
*1330 FILLER_45_249
*1331 FILLER_45_261
*1332 FILLER_45_27
*1333 FILLER_45_273
*1334 FILLER_45_279
*1335 FILLER_45_281
*1336 FILLER_45_293
*1337 FILLER_45_3
*1338 FILLER_45_39
*1339 FILLER_45_51
*1340 FILLER_45_55
*1341 FILLER_45_57
*1342 FILLER_45_69
*1343 FILLER_45_81
*1344 FILLER_45_93
*1345 FILLER_46_109
*1346 FILLER_46_121
*1347 FILLER_46_133
*1348 FILLER_46_139
*1349 FILLER_46_141
*1350 FILLER_46_15
*1351 FILLER_46_153
*1352 FILLER_46_165
*1353 FILLER_46_177
*1354 FILLER_46_189
*1355 FILLER_46_195
*1356 FILLER_46_197
*1357 FILLER_46_209
*1358 FILLER_46_221
*1359 FILLER_46_233
*1360 FILLER_46_245
*1361 FILLER_46_251
*1362 FILLER_46_253
*1363 FILLER_46_265
*1364 FILLER_46_27
*1365 FILLER_46_277
*1366 FILLER_46_289
*1367 FILLER_46_29
*1368 FILLER_46_297
*1369 FILLER_46_3
*1370 FILLER_46_41
*1371 FILLER_46_53
*1372 FILLER_46_65
*1373 FILLER_46_77
*1374 FILLER_46_83
*1375 FILLER_46_85
*1376 FILLER_46_97
*1377 FILLER_47_105
*1378 FILLER_47_111
*1379 FILLER_47_113
*1380 FILLER_47_125
*1381 FILLER_47_137
*1382 FILLER_47_149
*1383 FILLER_47_15
*1384 FILLER_47_161
*1385 FILLER_47_167
*1386 FILLER_47_169
*1387 FILLER_47_181
*1388 FILLER_47_193
*1389 FILLER_47_205
*1390 FILLER_47_217
*1391 FILLER_47_223
*1392 FILLER_47_225
*1393 FILLER_47_237
*1394 FILLER_47_249
*1395 FILLER_47_261
*1396 FILLER_47_27
*1397 FILLER_47_273
*1398 FILLER_47_279
*1399 FILLER_47_281
*1400 FILLER_47_293
*1401 FILLER_47_3
*1402 FILLER_47_39
*1403 FILLER_47_51
*1404 FILLER_47_55
*1405 FILLER_47_57
*1406 FILLER_47_69
*1407 FILLER_47_81
*1408 FILLER_47_93
*1409 FILLER_48_109
*1410 FILLER_48_121
*1411 FILLER_48_133
*1412 FILLER_48_139
*1413 FILLER_48_141
*1414 FILLER_48_15
*1415 FILLER_48_153
*1416 FILLER_48_165
*1417 FILLER_48_177
*1418 FILLER_48_189
*1419 FILLER_48_195
*1420 FILLER_48_197
*1421 FILLER_48_209
*1422 FILLER_48_221
*1423 FILLER_48_233
*1424 FILLER_48_245
*1425 FILLER_48_251
*1426 FILLER_48_253
*1427 FILLER_48_265
*1428 FILLER_48_27
*1429 FILLER_48_277
*1430 FILLER_48_289
*1431 FILLER_48_29
*1432 FILLER_48_297
*1433 FILLER_48_3
*1434 FILLER_48_41
*1435 FILLER_48_53
*1436 FILLER_48_65
*1437 FILLER_48_77
*1438 FILLER_48_83
*1439 FILLER_48_85
*1440 FILLER_48_97
*1441 FILLER_49_105
*1442 FILLER_49_111
*1443 FILLER_49_113
*1444 FILLER_49_125
*1445 FILLER_49_137
*1446 FILLER_49_149
*1447 FILLER_49_15
*1448 FILLER_49_161
*1449 FILLER_49_167
*1450 FILLER_49_169
*1451 FILLER_49_181
*1452 FILLER_49_193
*1453 FILLER_49_205
*1454 FILLER_49_217
*1455 FILLER_49_223
*1456 FILLER_49_225
*1457 FILLER_49_237
*1458 FILLER_49_249
*1459 FILLER_49_261
*1460 FILLER_49_27
*1461 FILLER_49_273
*1462 FILLER_49_279
*1463 FILLER_49_281
*1464 FILLER_49_293
*1465 FILLER_49_3
*1466 FILLER_49_39
*1467 FILLER_49_51
*1468 FILLER_49_55
*1469 FILLER_49_57
*1470 FILLER_49_69
*1471 FILLER_49_81
*1472 FILLER_49_93
*1473 FILLER_4_109
*1474 FILLER_4_121
*1475 FILLER_4_133
*1476 FILLER_4_139
*1477 FILLER_4_141
*1478 FILLER_4_153
*1479 FILLER_4_165
*1480 FILLER_4_177
*1481 FILLER_4_189
*1482 FILLER_4_19
*1483 FILLER_4_195
*1484 FILLER_4_197
*1485 FILLER_4_209
*1486 FILLER_4_221
*1487 FILLER_4_233
*1488 FILLER_4_245
*1489 FILLER_4_251
*1490 FILLER_4_253
*1491 FILLER_4_265
*1492 FILLER_4_27
*1493 FILLER_4_277
*1494 FILLER_4_289
*1495 FILLER_4_29
*1496 FILLER_4_297
*1497 FILLER_4_41
*1498 FILLER_4_53
*1499 FILLER_4_65
*1500 FILLER_4_77
*1501 FILLER_4_83
*1502 FILLER_4_85
*1503 FILLER_4_97
*1504 FILLER_50_109
*1505 FILLER_50_121
*1506 FILLER_50_133
*1507 FILLER_50_139
*1508 FILLER_50_141
*1509 FILLER_50_15
*1510 FILLER_50_153
*1511 FILLER_50_165
*1512 FILLER_50_177
*1513 FILLER_50_189
*1514 FILLER_50_195
*1515 FILLER_50_197
*1516 FILLER_50_209
*1517 FILLER_50_221
*1518 FILLER_50_233
*1519 FILLER_50_245
*1520 FILLER_50_251
*1521 FILLER_50_253
*1522 FILLER_50_265
*1523 FILLER_50_27
*1524 FILLER_50_277
*1525 FILLER_50_289
*1526 FILLER_50_29
*1527 FILLER_50_297
*1528 FILLER_50_3
*1529 FILLER_50_41
*1530 FILLER_50_53
*1531 FILLER_50_65
*1532 FILLER_50_77
*1533 FILLER_50_83
*1534 FILLER_50_85
*1535 FILLER_50_97
*1536 FILLER_51_105
*1537 FILLER_51_111
*1538 FILLER_51_113
*1539 FILLER_51_125
*1540 FILLER_51_137
*1541 FILLER_51_149
*1542 FILLER_51_15
*1543 FILLER_51_161
*1544 FILLER_51_167
*1545 FILLER_51_169
*1546 FILLER_51_181
*1547 FILLER_51_193
*1548 FILLER_51_205
*1549 FILLER_51_217
*1550 FILLER_51_223
*1551 FILLER_51_225
*1552 FILLER_51_237
*1553 FILLER_51_249
*1554 FILLER_51_261
*1555 FILLER_51_27
*1556 FILLER_51_273
*1557 FILLER_51_279
*1558 FILLER_51_281
*1559 FILLER_51_293
*1560 FILLER_51_3
*1561 FILLER_51_39
*1562 FILLER_51_51
*1563 FILLER_51_55
*1564 FILLER_51_57
*1565 FILLER_51_69
*1566 FILLER_51_81
*1567 FILLER_51_93
*1568 FILLER_52_109
*1569 FILLER_52_121
*1570 FILLER_52_133
*1571 FILLER_52_139
*1572 FILLER_52_141
*1573 FILLER_52_15
*1574 FILLER_52_153
*1575 FILLER_52_165
*1576 FILLER_52_177
*1577 FILLER_52_189
*1578 FILLER_52_195
*1579 FILLER_52_197
*1580 FILLER_52_209
*1581 FILLER_52_221
*1582 FILLER_52_233
*1583 FILLER_52_245
*1584 FILLER_52_251
*1585 FILLER_52_253
*1586 FILLER_52_265
*1587 FILLER_52_27
*1588 FILLER_52_277
*1589 FILLER_52_289
*1590 FILLER_52_29
*1591 FILLER_52_297
*1592 FILLER_52_3
*1593 FILLER_52_41
*1594 FILLER_52_53
*1595 FILLER_52_65
*1596 FILLER_52_77
*1597 FILLER_52_83
*1598 FILLER_52_85