*SPEF "ieee 1481-1999"
*DESIGN "s4ga"
*DATE "11:11:11 Fri 11 11, 1111"
*VENDOR "OpenRCX"
*PROGRAM "Parallel Extraction"
*VERSION "1.0"
*DESIGN_FLOW "NAME_SCOPE LOCAL" "PIN_CAP NONE"
*DIVIDER /
*DELIMITER :
*BUS_DELIMITER []
*T_UNIT 1 NS
*C_UNIT 1 PF
*R_UNIT 1 OHM
*L_UNIT 1 HENRY

*NAME_MAP
*1 io_in[0]
*2 io_in[1]
*3 io_in[2]
*4 io_in[3]
*5 io_in[4]
*6 io_in[5]
*7 io_in[6]
*8 io_in[7]
*9 io_out[0]
*10 io_out[1]
*11 io_out[2]
*12 io_out[3]
*13 io_out[4]
*14 io_out[5]
*15 io_out[6]
*16 io_out[7]
*19 _0000_
*20 _0001_
*21 _0002_
*22 _0003_
*23 _0004_
*24 _0005_
*25 _0006_
*26 _0007_
*27 _0008_
*28 _0009_
*29 _0010_
*30 _0011_
*31 _0012_
*32 _0013_
*33 _0014_
*34 _0015_
*35 _0016_
*36 _0017_
*37 _0018_
*38 _0019_
*39 _0020_
*40 _0021_
*41 _0022_
*42 _0023_
*43 _0024_
*44 _0025_
*45 _0026_
*46 _0027_
*47 _0028_
*48 _0029_
*49 _0030_
*50 _0031_
*51 _0032_
*52 _0033_
*53 _0034_
*54 _0035_
*55 _0036_
*56 _0037_
*57 _0038_
*58 _0039_
*59 _0040_
*60 _0041_
*61 _0042_
*62 _0043_
*63 _0044_
*64 _0045_
*65 _0046_
*66 _0047_
*67 _0048_
*68 _0049_
*69 _0050_
*70 _0051_
*71 _0052_
*72 _0053_
*73 _0054_
*74 _0055_
*75 _0056_
*76 _0057_
*77 _0058_
*78 _0059_
*79 _0060_
*80 _0061_
*81 _0062_
*82 _0063_
*83 _0064_
*84 _0065_
*85 _0066_
*86 _0067_
*87 _0068_
*88 _0069_
*89 _0070_
*90 _0071_
*91 _0072_
*92 _0073_
*93 _0074_
*94 _0075_
*95 _0076_
*96 _0077_
*97 _0078_
*98 _0079_
*99 _0080_
*100 _0081_
*101 _0082_
*102 _0083_
*103 _0084_
*104 _0085_
*105 _0086_
*106 _0087_
*107 _0088_
*108 _0089_
*109 _0090_
*110 _0091_
*111 _0092_
*112 _0093_
*113 _0094_
*114 _0095_
*115 _0096_
*116 _0097_
*117 _0098_
*118 _0099_
*119 _0100_
*120 _0101_
*121 _0102_
*122 _0103_
*123 _0104_
*124 _0105_
*125 _0106_
*126 _0107_
*127 _0108_
*128 _0109_
*129 _0110_
*130 _0111_
*131 _0112_
*132 _0113_
*133 _0114_
*134 _0115_
*135 _0116_
*136 _0117_
*137 _0118_
*138 _0119_
*139 _0120_
*140 _0121_
*141 _0122_
*142 _0123_
*143 _0124_
*144 _0125_
*145 _0126_
*146 _0127_
*147 _0128_
*148 _0129_
*149 _0130_
*150 _0131_
*151 _0132_
*152 _0133_
*153 _0134_
*154 _0135_
*155 _0136_
*156 _0137_
*157 _0138_
*158 _0139_
*159 _0140_
*160 _0141_
*161 _0142_
*162 _0143_
*163 _0144_
*164 _0145_
*165 _0146_
*166 _0147_
*167 _0148_
*168 _0149_
*169 _0150_
*170 _0151_
*171 _0152_
*172 _0153_
*173 _0154_
*174 _0155_
*175 _0156_
*176 _0157_
*177 _0158_
*178 _0159_
*179 _0160_
*180 _0161_
*181 _0162_
*182 _0163_
*183 _0164_
*184 _0165_
*185 _0166_
*186 _0167_
*187 _0168_
*188 _0169_
*189 _0170_
*190 _0171_
*191 _0172_
*192 _0173_
*193 _0174_
*194 _0175_
*195 _0176_
*196 _0177_
*197 _0178_
*198 _0179_
*199 _0180_
*200 _0181_
*201 _0182_
*202 _0183_
*203 _0184_
*204 _0185_
*205 _0186_
*206 _0187_
*207 _0188_
*208 _0189_
*209 _0190_
*210 _0191_
*211 _0192_
*212 _0193_
*213 _0194_
*214 _0195_
*215 _0196_
*216 _0197_
*217 _0198_
*218 _0199_
*219 _0200_
*220 _0201_
*221 _0202_
*222 _0203_
*223 _0204_
*224 _0205_
*225 _0206_
*226 _0207_
*227 _0208_
*228 _0209_
*229 _0210_
*230 _0211_
*231 _0212_
*232 _0213_
*233 _0214_
*234 _0215_
*235 _0216_
*236 _0217_
*237 _0218_
*238 _0219_
*239 _0220_
*240 _0221_
*241 _0222_
*242 _0223_
*243 _0224_
*244 _0225_
*245 _0226_
*246 _0227_
*247 _0228_
*248 _0229_
*249 _0230_
*250 _0231_
*251 _0232_
*252 _0233_
*253 _0234_
*254 _0235_
*255 _0236_
*256 _0237_
*257 _0238_
*258 _0239_
*259 _0240_
*260 _0241_
*261 _0242_
*262 _0243_
*263 _0244_
*264 _0245_
*265 _0246_
*266 _0247_
*267 _0248_
*268 _0249_
*269 _0250_
*270 _0251_
*271 _0252_
*272 _0253_
*273 _0254_
*274 _0255_
*275 _0256_
*276 _0257_
*277 _0258_
*278 _0259_
*279 _0260_
*280 _0261_
*281 _0262_
*282 _0263_
*283 _0264_
*284 _0265_
*285 _0266_
*286 _0267_
*287 _0268_
*288 _0269_
*289 _0270_
*290 _0271_
*291 _0272_
*292 _0273_
*293 _0274_
*294 _0275_
*295 _0276_
*296 _0277_
*297 _0278_
*298 _0279_
*299 _0280_
*300 _0281_
*301 _0282_
*302 _0283_
*303 _0284_
*304 _0285_
*305 _0286_
*306 _0287_
*307 _0288_
*308 _0289_
*309 _0290_
*310 _0291_
*311 _0292_
*312 _0293_
*313 _0294_
*314 _0295_
*315 _0296_
*316 _0297_
*317 _0298_
*318 _0299_
*319 _0300_
*320 _0301_
*321 _0302_
*322 _0303_
*323 _0304_
*324 _0305_
*325 _0306_
*326 _0307_
*327 _0308_
*328 _0309_
*329 _0310_
*330 _0311_
*331 _0312_
*332 _0313_
*333 _0314_
*334 _0315_
*335 _0316_
*336 _0317_
*337 _0318_
*338 _0319_
*339 _0320_
*340 _0321_
*341 _0322_
*342 _0323_
*343 _0324_
*344 _0325_
*345 _0326_
*346 _0327_
*347 _0328_
*348 _0329_
*349 _0330_
*350 _0331_
*351 _0332_
*352 _0333_
*353 _0334_
*354 _0335_
*355 _0336_
*356 _0337_
*357 _0338_
*358 _0339_
*359 _0340_
*360 _0341_
*361 _0342_
*362 _0343_
*363 _0344_
*364 _0345_
*365 _0346_
*366 _0347_
*367 _0348_
*368 _0349_
*369 _0350_
*370 _0351_
*371 _0352_
*372 _0353_
*373 _0354_
*374 _0355_
*375 _0356_
*376 _0357_
*377 _0358_
*378 _0359_
*379 all_in\[100\]
*380 all_in\[101\]
*381 all_in\[102\]
*382 all_in\[103\]
*383 all_in\[104\]
*384 all_in\[105\]
*385 all_in\[106\]
*386 all_in\[107\]
*387 all_in\[108\]
*388 all_in\[109\]
*389 all_in\[10\]
*390 all_in\[110\]
*391 all_in\[111\]
*392 all_in\[112\]
*393 all_in\[113\]
*394 all_in\[114\]
*395 all_in\[115\]
*396 all_in\[116\]
*397 all_in\[117\]
*398 all_in\[118\]
*399 all_in\[119\]
*400 all_in\[11\]
*401 all_in\[120\]
*402 all_in\[121\]
*403 all_in\[122\]
*404 all_in\[123\]
*405 all_in\[124\]
*406 all_in\[125\]
*407 all_in\[126\]
*408 all_in\[127\]
*409 all_in\[128\]
*410 all_in\[129\]
*411 all_in\[12\]
*412 all_in\[130\]
*413 all_in\[131\]
*414 all_in\[132\]
*415 all_in\[133\]
*416 all_in\[134\]
*417 all_in\[135\]
*418 all_in\[136\]
*419 all_in\[137\]
*420 all_in\[138\]
*421 all_in\[139\]
*422 all_in\[13\]
*423 all_in\[140\]
*424 all_in\[141\]
*425 all_in\[142\]
*426 all_in\[143\]
*427 all_in\[144\]
*428 all_in\[145\]
*429 all_in\[146\]
*430 all_in\[147\]
*431 all_in\[148\]
*432 all_in\[149\]
*433 all_in\[14\]
*434 all_in\[150\]
*435 all_in\[151\]
*436 all_in\[152\]
*437 all_in\[153\]
*438 all_in\[154\]
*439 all_in\[155\]
*440 all_in\[156\]
*441 all_in\[157\]
*442 all_in\[158\]
*443 all_in\[159\]
*444 all_in\[15\]
*445 all_in\[160\]
*446 all_in\[161\]
*447 all_in\[162\]
*448 all_in\[163\]
*449 all_in\[164\]
*450 all_in\[165\]
*451 all_in\[166\]
*452 all_in\[167\]
*453 all_in\[168\]
*454 all_in\[169\]
*455 all_in\[16\]
*456 all_in\[170\]
*457 all_in\[171\]
*458 all_in\[172\]
*459 all_in\[173\]
*460 all_in\[174\]
*461 all_in\[175\]
*462 all_in\[176\]
*463 all_in\[177\]
*464 all_in\[178\]
*465 all_in\[179\]
*466 all_in\[17\]
*467 all_in\[180\]
*468 all_in\[181\]
*469 all_in\[182\]
*470 all_in\[183\]
*471 all_in\[184\]
*472 all_in\[185\]
*473 all_in\[186\]
*474 all_in\[187\]
*475 all_in\[188\]
*476 all_in\[189\]
*477 all_in\[18\]
*478 all_in\[190\]
*479 all_in\[191\]
*480 all_in\[192\]
*481 all_in\[193\]
*482 all_in\[194\]
*483 all_in\[195\]
*484 all_in\[196\]
*485 all_in\[197\]
*486 all_in\[198\]
*487 all_in\[199\]
*488 all_in\[19\]
*489 all_in\[200\]
*490 all_in\[201\]
*491 all_in\[202\]
*492 all_in\[203\]
*493 all_in\[204\]
*494 all_in\[205\]
*495 all_in\[206\]
*496 all_in\[207\]
*497 all_in\[208\]
*498 all_in\[209\]
*499 all_in\[20\]
*500 all_in\[210\]
*501 all_in\[211\]
*502 all_in\[212\]
*503 all_in\[213\]
*504 all_in\[214\]
*505 all_in\[215\]
*506 all_in\[216\]
*507 all_in\[217\]
*508 all_in\[218\]
*509 all_in\[219\]
*510 all_in\[21\]
*511 all_in\[220\]
*512 all_in\[221\]
*513 all_in\[222\]
*514 all_in\[223\]
*515 all_in\[224\]
*516 all_in\[225\]
*517 all_in\[226\]
*518 all_in\[227\]
*519 all_in\[228\]
*520 all_in\[229\]
*521 all_in\[22\]
*522 all_in\[230\]
*523 all_in\[231\]
*524 all_in\[232\]
*525 all_in\[233\]
*526 all_in\[234\]
*527 all_in\[235\]
*528 all_in\[236\]
*529 all_in\[237\]
*530 all_in\[238\]
*531 all_in\[239\]
*532 all_in\[23\]
*533 all_in\[240\]
*534 all_in\[241\]
*535 all_in\[242\]
*536 all_in\[243\]
*537 all_in\[244\]
*538 all_in\[245\]
*539 all_in\[246\]
*540 all_in\[247\]
*541 all_in\[248\]
*542 all_in\[249\]
*543 all_in\[24\]
*544 all_in\[250\]
*545 all_in\[251\]
*546 all_in\[252\]
*547 all_in\[253\]
*548 all_in\[254\]
*549 all_in\[255\]
*550 all_in\[256\]
*551 all_in\[257\]
*552 all_in\[258\]
*553 all_in\[259\]
*554 all_in\[25\]
*555 all_in\[260\]
*556 all_in\[261\]
*557 all_in\[262\]
*558 all_in\[263\]
*559 all_in\[264\]
*560 all_in\[265\]
*561 all_in\[266\]
*562 all_in\[267\]
*563 all_in\[268\]
*564 all_in\[269\]
*565 all_in\[26\]
*566 all_in\[270\]
*567 all_in\[271\]
*568 all_in\[272\]
*569 all_in\[273\]
*570 all_in\[274\]
*571 all_in\[275\]
*572 all_in\[276\]
*573 all_in\[277\]
*574 all_in\[278\]
*575 all_in\[279\]
*576 all_in\[27\]
*577 all_in\[280\]
*578 all_in\[281\]
*579 all_in\[282\]
*580 all_in\[283\]
*581 all_in\[284\]
*582 all_in\[285\]
*583 all_in\[286\]
*584 all_in\[287\]
*585 all_in\[28\]
*586 all_in\[29\]
*587 all_in\[2\]
*588 all_in\[30\]
*589 all_in\[31\]
*590 all_in\[32\]
*591 all_in\[33\]
*592 all_in\[34\]
*593 all_in\[35\]
*594 all_in\[36\]
*595 all_in\[37\]
*596 all_in\[38\]
*597 all_in\[39\]
*598 all_in\[3\]
*599 all_in\[40\]
*600 all_in\[41\]
*601 all_in\[42\]
*602 all_in\[43\]
*603 all_in\[44\]
*604 all_in\[45\]
*605 all_in\[46\]
*606 all_in\[47\]
*607 all_in\[48\]
*608 all_in\[49\]
*609 all_in\[4\]
*610 all_in\[50\]
*611 all_in\[51\]
*612 all_in\[52\]
*613 all_in\[53\]
*614 all_in\[54\]
*615 all_in\[55\]
*616 all_in\[56\]
*617 all_in\[57\]
*618 all_in\[58\]
*619 all_in\[59\]
*620 all_in\[5\]
*621 all_in\[60\]
*622 all_in\[61\]
*623 all_in\[62\]
*624 all_in\[63\]
*625 all_in\[64\]
*626 all_in\[65\]
*627 all_in\[66\]
*628 all_in\[67\]
*629 all_in\[68\]
*630 all_in\[69\]
*631 all_in\[6\]
*632 all_in\[70\]
*633 all_in\[71\]
*634 all_in\[72\]
*635 all_in\[73\]
*636 all_in\[74\]
*637 all_in\[75\]
*638 all_in\[76\]
*639 all_in\[77\]
*640 all_in\[78\]
*641 all_in\[79\]
*642 all_in\[7\]
*643 all_in\[80\]
*644 all_in\[81\]
*645 all_in\[82\]
*646 all_in\[83\]
*647 all_in\[84\]
*648 all_in\[85\]
*649 all_in\[86\]
*650 all_in\[87\]
*651 all_in\[88\]
*652 all_in\[89\]
*653 all_in\[8\]
*654 all_in\[90\]
*655 all_in\[91\]
*656 all_in\[92\]
*657 all_in\[93\]
*658 all_in\[94\]
*659 all_in\[95\]
*660 all_in\[96\]
*661 all_in\[97\]
*662 all_in\[98\]
*663 all_in\[99\]
*664 all_in\[9\]
*665 clknet_0_io_in[0]
*666 clknet_1_0__leaf_io_in[0]
*667 clknet_1_1__leaf_io_in[0]
*668 clknet_leaf_0_io_in[0]
*669 clknet_leaf_10_io_in[0]
*670 clknet_leaf_11_io_in[0]
*671 clknet_leaf_12_io_in[0]
*672 clknet_leaf_13_io_in[0]
*673 clknet_leaf_14_io_in[0]
*674 clknet_leaf_15_io_in[0]
*675 clknet_leaf_16_io_in[0]
*676 clknet_leaf_17_io_in[0]
*677 clknet_leaf_18_io_in[0]
*678 clknet_leaf_19_io_in[0]
*679 clknet_leaf_1_io_in[0]
*680 clknet_leaf_20_io_in[0]
*681 clknet_leaf_21_io_in[0]
*682 clknet_leaf_22_io_in[0]
*683 clknet_leaf_23_io_in[0]
*684 clknet_leaf_24_io_in[0]
*685 clknet_leaf_2_io_in[0]
*686 clknet_leaf_3_io_in[0]
*687 clknet_leaf_4_io_in[0]
*688 clknet_leaf_5_io_in[0]
*689 clknet_leaf_6_io_in[0]
*690 clknet_leaf_7_io_in[0]
*691 clknet_leaf_8_io_in[0]
*692 clknet_leaf_9_io_in[0]
*693 half_q
*694 idx\[0\]
*695 idx\[1\]
*696 idx\[2\]
*697 idx\[3\]
*698 idx\[4\]
*699 idx\[5\]
*700 idx\[6\]
*701 idx\[7\]
*702 idx\[8\]
*703 ins\[0\]
*704 ins\[1\]
*705 ins\[2\]
*706 ins\[3\]
*707 ins\[4\]
*708 k\[0\]
*709 k\[1\]
*710 k\[2\]
*711 lut_q
*712 n\[0\]
*713 n\[1\]
*714 n\[2\]
*715 n\[3\]
*716 n\[4\]
*717 n\[5\]
*718 n\[6\]
*719 n\[7\]
*720 n\[8\]
*721 net1
*722 net10
*723 net100
*724 net101
*725 net102
*726 net103
*727 net104
*728 net105
*729 net106
*730 net107
*731 net108
*732 net109
*733 net11
*734 net110
*735 net111
*736 net112
*737 net113
*738 net114
*739 net115
*740 net116
*741 net117
*742 net118
*743 net119
*744 net12
*745 net120
*746 net121
*747 net122
*748 net123
*749 net124
*750 net125
*751 net126
*752 net127
*753 net128
*754 net129
*755 net13
*756 net130
*757 net131
*758 net132
*759 net133
*760 net134
*761 net135
*762 net136
*763 net137
*764 net138
*765 net139
*766 net14
*767 net140
*768 net141
*769 net142
*770 net143
*771 net144
*772 net145
*773 net146
*774 net147
*775 net148
*776 net149
*777 net15
*778 net150
*779 net151
*780 net152
*781 net153
*782 net154
*783 net155
*784 net156
*785 net157
*786 net158
*787 net159
*788 net16
*789 net160
*790 net161
*791 net162
*792 net163
*793 net164
*794 net165
*795 net166
*796 net167
*797 net168
*798 net169
*799 net17
*800 net170
*801 net171
*802 net172
*803 net173
*804 net174
*805 net175
*806 net176
*807 net177
*808 net178
*809 net179
*810 net18
*811 net180
*812 net181
*813 net182
*814 net183
*815 net184
*816 net185
*817 net186
*818 net187
*819 net188
*820 net189
*821 net19
*822 net190
*823 net191
*824 net192
*825 net193
*826 net194
*827 net195
*828 net196
*829 net197
*830 net198
*831 net199
*832 net2
*833 net20
*834 net200
*835 net201
*836 net202
*837 net203
*838 net204
*839 net205
*840 net206
*841 net207
*842 net208
*843 net209
*844 net21
*845 net210
*846 net211
*847 net212
*848 net213
*849 net214
*850 net215
*851 net216
*852 net217
*853 net218
*854 net219
*855 net22
*856 net220
*857 net221
*858 net222
*859 net223
*860 net224
*861 net225
*862 net226
*863 net227
*864 net228
*865 net229
*866 net23
*867 net230
*868 net231
*869 net232
*870 net233
*871 net234
*872 net235
*873 net236
*874 net237
*875 net238
*876 net239
*877 net24
*878 net240
*879 net241
*880 net242
*881 net243
*882 net244
*883 net245
*884 net246
*885 net247
*886 net248
*887 net249
*888 net25
*889 net250
*890 net251
*891 net252
*892 net253
*893 net254
*894 net255
*895 net256
*896 net257
*897 net258
*898 net259
*899 net26
*900 net260
*901 net261
*902 net262
*903 net263
*904 net264
*905 net265
*906 net266
*907 net267
*908 net268
*909 net269
*910 net27
*911 net270
*912 net271
*913 net272
*914 net273
*915 net274
*916 net275
*917 net276
*918 net277
*919 net278
*920 net279
*921 net28
*922 net280
*923 net281
*924 net29
*925 net3
*926 net30
*927 net31
*928 net32
*929 net33
*930 net34
*931 net35
*932 net36
*933 net37
*934 net38
*935 net39
*936 net4
*937 net40
*938 net41
*939 net42
*940 net43
*941 net44
*942 net45
*943 net46
*944 net47
*945 net48
*946 net49
*947 net5
*948 net50
*949 net51
*950 net52
*951 net53
*952 net54
*953 net55
*954 net56
*955 net57
*956 net58
*957 net59
*958 net6
*959 net60
*960 net61
*961 net62
*962 net63
*963 net64
*964 net65
*965 net66
*966 net67
*967 net68
*968 net69
*969 net7
*970 net70
*971 net71
*972 net72
*973 net73
*974 net74
*975 net75
*976 net76
*977 net77
*978 net78
*979 net79
*980 net8
*981 net80
*982 net81
*983 net82
*984 net83
*985 net84
*986 net85
*987 net86
*988 net87
*989 net88
*990 net89
*991 net9
*992 net90
*993 net91
*994 net92
*995 net93
*996 net94
*997 net95
*998 net96
*999 net97
*1000 net98
*1001 net99
*1002 rst
*1003 seg\[0\]
*1004 seg\[1\]
*1005 seg\[2\]
*1006 ANTENNA_0
*1007 ANTENNA_1
*1008 ANTENNA_10
*1009 ANTENNA_11
*1010 ANTENNA_12
*1011 ANTENNA_13
*1012 ANTENNA_14
*1013 ANTENNA_15
*1014 ANTENNA_16
*1015 ANTENNA_2
*1016 ANTENNA_3
*1017 ANTENNA_4
*1018 ANTENNA_5
*1019 ANTENNA_6
*1020 ANTENNA_7
*1021 ANTENNA_8
*1022 ANTENNA_9
*1023 FILLER_0_101
*1024 FILLER_0_108
*1025 FILLER_0_113
*1026 FILLER_0_131
*1027 FILLER_0_139
*1028 FILLER_0_157
*1029 FILLER_0_165
*1030 FILLER_0_169
*1031 FILLER_0_188
*1032 FILLER_0_205
*1033 FILLER_0_217
*1034 FILLER_0_223
*1035 FILLER_0_233
*1036 FILLER_0_24
*1037 FILLER_0_245
*1038 FILLER_0_250
*1039 FILLER_0_261
*1040 FILLER_0_273
*1041 FILLER_0_277
*1042 FILLER_0_289
*1043 FILLER_0_293
*1044 FILLER_0_3
*1045 FILLER_0_32
*1046 FILLER_0_52
*1047 FILLER_0_60
*1048 FILLER_0_7
*1049 FILLER_0_80
*1050 FILLER_10_106
*1051 FILLER_10_116
*1052 FILLER_10_136
*1053 FILLER_10_162
*1054 FILLER_10_190
*1055 FILLER_10_205
*1056 FILLER_10_217
*1057 FILLER_10_237
*1058 FILLER_10_24
*1059 FILLER_10_246
*1060 FILLER_10_257
*1061 FILLER_10_281
*1062 FILLER_10_285
*1063 FILLER_10_29
*1064 FILLER_10_294
*1065 FILLER_10_298
*1066 FILLER_10_3
*1067 FILLER_10_43
*1068 FILLER_10_68
*1069 FILLER_10_7
*1070 FILLER_10_80
*1071 FILLER_11_108
*1072 FILLER_11_113
*1073 FILLER_11_12
*1074 FILLER_11_135
*1075 FILLER_11_160
*1076 FILLER_11_169
*1077 FILLER_11_186
*1078 FILLER_11_197
*1079 FILLER_11_217
*1080 FILLER_11_223
*1081 FILLER_11_225
*1082 FILLER_11_236
*1083 FILLER_11_261
*1084 FILLER_11_275
*1085 FILLER_11_279
*1086 FILLER_11_289
*1087 FILLER_11_297
*1088 FILLER_11_3
*1089 FILLER_11_32
*1090 FILLER_11_52
*1091 FILLER_11_57
*1092 FILLER_11_68
*1093 FILLER_11_88
*1094 FILLER_11_96
*1095 FILLER_12_107
*1096 FILLER_12_125
*1097 FILLER_12_129
*1098 FILLER_12_136
*1099 FILLER_12_141
*1100 FILLER_12_158
*1101 FILLER_12_167
*1102 FILLER_12_192
*1103 FILLER_12_201
*1104 FILLER_12_21
*1105 FILLER_12_221
*1106 FILLER_12_228
*1107 FILLER_12_248
*1108 FILLER_12_259
*1109 FILLER_12_27
*1110 FILLER_12_284
*1111 FILLER_12_29
*1112 FILLER_12_292
*1113 FILLER_12_298
*1114 FILLER_12_3
*1115 FILLER_12_37
*1116 FILLER_12_40
*1117 FILLER_12_58
*1118 FILLER_12_72
*1119 FILLER_12_80
*1120 FILLER_12_94
*1121 FILLER_12_98
*1122 FILLER_13_108
*1123 FILLER_13_134
*1124 FILLER_13_146
*1125 FILLER_13_159
*1126 FILLER_13_167
*1127 FILLER_13_177
*1128 FILLER_13_197
*1129 FILLER_13_217
*1130 FILLER_13_223
*1131 FILLER_13_233
*1132 FILLER_13_239
*1133 FILLER_13_256
*1134 FILLER_13_276
*1135 FILLER_13_289
*1136 FILLER_13_297
*1137 FILLER_13_3
*1138 FILLER_13_52
*1139 FILLER_13_65
*1140 FILLER_13_7
*1141 FILLER_13_76
*1142 FILLER_13_88
*1143 FILLER_14_101
*1144 FILLER_14_121
*1145 FILLER_14_133
*1146 FILLER_14_139
*1147 FILLER_14_145
*1148 FILLER_14_157
*1149 FILLER_14_169
*1150 FILLER_14_177
*1151 FILLER_14_188
*1152 FILLER_14_197
*1153 FILLER_14_21
*1154 FILLER_14_224
*1155 FILLER_14_244
*1156 FILLER_14_261
*1157 FILLER_14_269
*1158 FILLER_14_27
*1159 FILLER_14_286
*1160 FILLER_14_29
*1161 FILLER_14_294
*1162 FILLER_14_298
*1163 FILLER_14_3
*1164 FILLER_14_38
*1165 FILLER_14_60
*1166 FILLER_14_80
*1167 FILLER_14_89
*1168 FILLER_15_108
*1169 FILLER_15_117
*1170 FILLER_15_131
*1171 FILLER_15_145
*1172 FILLER_15_159
*1173 FILLER_15_167
*1174 FILLER_15_172
*1175 FILLER_15_184
*1176 FILLER_15_196
*1177 FILLER_15_208
*1178 FILLER_15_220
*1179 FILLER_15_225
*1180 FILLER_15_234
*1181 FILLER_15_25
*1182 FILLER_15_254
*1183 FILLER_15_276
*1184 FILLER_15_289
*1185 FILLER_15_29
*1186 FILLER_15_297
*1187 FILLER_15_47
*1188 FILLER_15_55
*1189 FILLER_15_7
*1190 FILLER_15_78
*1191 FILLER_15_98
*1192 FILLER_16_109
*1193 FILLER_16_116
*1194 FILLER_16_136
*1195 FILLER_16_151
*1196 FILLER_16_171
*1197 FILLER_16_183
*1198 FILLER_16_192
*1199 FILLER_16_197
*1200 FILLER_16_206
*1201 FILLER_16_216
*1202 FILLER_16_228
*1203 FILLER_16_24
*1204 FILLER_16_248
*1205 FILLER_16_259
*1206 FILLER_16_263
*1207 FILLER_16_285
*1208 FILLER_16_29
*1209 FILLER_16_294
*1210 FILLER_16_298
*1211 FILLER_16_3
*1212 FILLER_16_35
*1213 FILLER_16_59
*1214 FILLER_16_7
*1215 FILLER_16_79
*1216 FILLER_16_83
*1217 FILLER_16_85
*1218 FILLER_16_97
*1219 FILLER_17_101
*1220 FILLER_17_108
*1221 FILLER_17_121
*1222 FILLER_17_149
*1223 FILLER_17_163
*1224 FILLER_17_167
*1225 FILLER_17_169
*1226 FILLER_17_188
*1227 FILLER_17_20
*1228 FILLER_17_200
*1229 FILLER_17_220
*1230 FILLER_17_233
*1231 FILLER_17_237
*1232 FILLER_17_259
*1233 FILLER_17_272
*1234 FILLER_17_290
*1235 FILLER_17_298
*1236 FILLER_17_3
*1237 FILLER_17_45
*1238 FILLER_17_52
*1239 FILLER_17_57
*1240 FILLER_17_69
*1241 FILLER_17_81
*1242 FILLER_17_97
*1243 FILLER_18_101
*1244 FILLER_18_113
*1245 FILLER_18_122
*1246 FILLER_18_136
*1247 FILLER_18_157
*1248 FILLER_18_169
*1249 FILLER_18_175
*1250 FILLER_18_192
*1251 FILLER_18_205
*1252 FILLER_18_209
*1253 FILLER_18_231
*1254 FILLER_18_24
*1255 FILLER_18_245
*1256 FILLER_18_251
*1257 FILLER_18_269
*1258 FILLER_18_289
*1259 FILLER_18_297
*1260 FILLER_18_3
*1261 FILLER_18_45
*1262 FILLER_18_52
*1263 FILLER_18_7
*1264 FILLER_18_72
*1265 FILLER_18_80
*1266 FILLER_18_88
*1267 FILLER_19_107
*1268 FILLER_19_111
*1269 FILLER_19_121
*1270 FILLER_19_135
*1271 FILLER_19_149
*1272 FILLER_19_155
*1273 FILLER_19_164
*1274 FILLER_19_173
*1275 FILLER_19_198
*1276 FILLER_19_220
*1277 FILLER_19_24
*1278 FILLER_19_241
*1279 FILLER_19_261
*1280 FILLER_19_273
*1281 FILLER_19_279
*1282 FILLER_19_289
*1283 FILLER_19_297
*1284 FILLER_19_3
*1285 FILLER_19_30
*1286 FILLER_19_47
*1287 FILLER_19_55
*1288 FILLER_19_57
*1289 FILLER_19_7
*1290 FILLER_19_75
*1291 FILLER_19_97
*1292 FILLER_1_108
*1293 FILLER_1_116
*1294 FILLER_1_12
*1295 FILLER_1_136
*1296 FILLER_1_142
*1297 FILLER_1_159
*1298 FILLER_1_167
*1299 FILLER_1_185
*1300 FILLER_1_193
*1301 FILLER_1_215
*1302 FILLER_1_223
*1303 FILLER_1_241
*1304 FILLER_1_253
*1305 FILLER_1_265
*1306 FILLER_1_273
*1307 FILLER_1_279
*1308 FILLER_1_289
*1309 FILLER_1_297
*1310 FILLER_1_3
*1311 FILLER_1_32
*1312 FILLER_1_52
*1313 FILLER_1_57
*1314 FILLER_1_68
*1315 FILLER_1_88
*1316 FILLER_20_103
*1317 FILLER_20_117
*1318 FILLER_20_124
*1319 FILLER_20_136
*1320 FILLER_20_157
*1321 FILLER_20_163
*1322 FILLER_20_172
*1323 FILLER_20_19
*1324 FILLER_20_192
*1325 FILLER_20_205
*1326 FILLER_20_213
*1327 FILLER_20_231
*1328 FILLER_20_243
*1329 FILLER_20_251
*1330 FILLER_20_253
*1331 FILLER_20_27
*1332 FILLER_20_275
*1333 FILLER_20_287
*1334 FILLER_20_29
*1335 FILLER_20_295
*1336 FILLER_20_35
*1337 FILLER_20_55
*1338 FILLER_20_80
*1339 FILLER_20_85
*1340 FILLER_21_108
*1341 FILLER_21_113
*1342 FILLER_21_120
*1343 FILLER_21_140
*1344 FILLER_21_15
*1345 FILLER_21_164
*1346 FILLER_21_169
*1347 FILLER_21_191
*1348 FILLER_21_203
*1349 FILLER_21_215
*1350 FILLER_21_223
*1351 FILLER_21_225
*1352 FILLER_21_247
*1353 FILLER_21_267
*1354 FILLER_21_275
*1355 FILLER_21_279
*1356 FILLER_21_289
*1357 FILLER_21_297
*1358 FILLER_21_3
*1359 FILLER_21_40
*1360 FILLER_21_52
*1361 FILLER_21_57
*1362 FILLER_21_64
*1363 FILLER_21_84
*1364 FILLER_21_88
*1365 FILLER_21_95
*1366 FILLER_22_106
*1367 FILLER_22_120
*1368 FILLER_22_136
*1369 FILLER_22_150
*1370 FILLER_22_172
*1371 FILLER_22_184
*1372 FILLER_22_192
*1373 FILLER_22_20
*1374 FILLER_22_202
*1375 FILLER_22_214
*1376 FILLER_22_238
*1377 FILLER_22_248
*1378 FILLER_22_261
*1379 FILLER_22_289
*1380 FILLER_22_29
*1381 FILLER_22_297
*1382 FILLER_22_3
*1383 FILLER_22_35
*1384 FILLER_22_47
*1385 FILLER_22_67
*1386 FILLER_22_71
*1387 FILLER_22_80
*1388 FILLER_22_85
*1389 FILLER_22_89
*1390 FILLER_23_105
*1391 FILLER_23_111
*1392 FILLER_23_113
*1393 FILLER_23_117
*1394 FILLER_23_134
*1395 FILLER_23_144
*1396 FILLER_23_164
*1397 FILLER_23_177
*1398 FILLER_23_181
*1399 FILLER_23_198
*1400 FILLER_23_220
*1401 FILLER_23_233
*1402 FILLER_23_241
*1403 FILLER_23_259
*1404 FILLER_23_271
*1405 FILLER_23_279
*1406 FILLER_23_28
*1407 FILLER_23_289
*1408 FILLER_23_297
*1409 FILLER_23_3
*1410 FILLER_23_52
*1411 FILLER_23_73
*1412 FILLER_23_8
*1413 FILLER_23_81
*1414 FILLER_23_90
*1415 FILLER_23_96
*1416 FILLER_24_113
*1417 FILLER_24_117
*1418 FILLER_24_124
*1419 FILLER_24_136
*1420 FILLER_24_141
*1421 FILLER_24_145
*1422 FILLER_24_155
*1423 FILLER_24_175
*1424 FILLER_24_187
*1425 FILLER_24_195
*1426 FILLER_24_213
*1427 FILLER_24_233
*1428 FILLER_24_24
*1429 FILLER_24_245
*1430 FILLER_24_251
*1431 FILLER_24_274
*1432 FILLER_24_29
*1433 FILLER_24_294
*1434 FILLER_24_298
*1435 FILLER_24_3
*1436 FILLER_24_49
*1437 FILLER_24_7
*1438 FILLER_24_72
*1439 FILLER_24_80
*1440 FILLER_24_89
*1441 FILLER_25_108
*1442 FILLER_25_113
*1443 FILLER_25_133
*1444 FILLER_25_141
*1445 FILLER_25_15
*1446 FILLER_25_151
*1447 FILLER_25_164
*1448 FILLER_25_177
*1449 FILLER_25_204
*1450 FILLER_25_216
*1451 FILLER_25_241
*1452 FILLER_25_247
*1453 FILLER_25_264
*1454 FILLER_25_276
*1455 FILLER_25_289
*1456 FILLER_25_297
*1457 FILLER_25_3
*1458 FILLER_25_40
*1459 FILLER_25_52
*1460 FILLER_25_57
*1461 FILLER_25_70
*1462 FILLER_25_79
*1463 FILLER_25_99
*1464 FILLER_26_111
*1465 FILLER_26_115
*1466 FILLER_26_124
*1467 FILLER_26_136
*1468 FILLER_26_148
*1469 FILLER_26_160
*1470 FILLER_26_172
*1471 FILLER_26_192
*1472 FILLER_26_205
*1473 FILLER_26_234
*1474 FILLER_26_24
*1475 FILLER_26_246
*1476 FILLER_26_269
*1477 FILLER_26_289
*1478 FILLER_26_29
*1479 FILLER_26_297
*1480 FILLER_26_3
*1481 FILLER_26_39
*1482 FILLER_26_59
*1483 FILLER_26_63
*1484 FILLER_26_7
*1485 FILLER_26_80
*1486 FILLER_26_85
*1487 FILLER_26_89
*1488 FILLER_27_108
*1489 FILLER_27_118
*1490 FILLER_27_130
*1491 FILLER_27_139
*1492 FILLER_27_163
*1493 FILLER_27_167
*1494 FILLER_27_177
*1495 FILLER_27_185
*1496 FILLER_27_203
*1497 FILLER_27_215
*1498 FILLER_27_223
*1499 FILLER_27_225
*1500 FILLER_27_242
*1501 FILLER_27_267
*1502 FILLER_27_275
*1503 FILLER_27_279
*1504 FILLER_27_28
*1505 FILLER_27_281
*1506 FILLER_27_292
*1507 FILLER_27_298
*1508 FILLER_27_3
*1509 FILLER_27_40
*1510 FILLER_27_52
*1511 FILLER_27_57
*1512 FILLER_27_61
*1513 FILLER_27_78
*1514 FILLER_27_8
*1515 FILLER_27_98
*1516 FILLER_28_100
*1517 FILLER_28_112
*1518 FILLER_28_125
*1519 FILLER_28_136
*1520 FILLER_28_141
*1521 FILLER_28_163
*1522 FILLER_28_175
*1523 FILLER_28_191
*1524 FILLER_28_195
*1525 FILLER_28_197
*1526 FILLER_28_21
*1527 FILLER_28_211
*1528 FILLER_28_223
*1529 FILLER_28_235
*1530 FILLER_28_239
*1531 FILLER_28_248
*1532 FILLER_28_253
*1533 FILLER_28_27
*1534 FILLER_28_270
*1535 FILLER_28_290
*1536 FILLER_28_298
*1537 FILLER_28_3
*1538 FILLER_28_33
*1539 FILLER_28_45
*1540 FILLER_28_57
*1541 FILLER_28_77
*1542 FILLER_28_83
*1543 FILLER_28_88
*1544 FILLER_29_108
*1545 FILLER_29_122
*1546 FILLER_29_134
*1547 FILLER_29_151
*1548 FILLER_29_155
*1549 FILLER_29_164
*1550 FILLER_29_177
*1551 FILLER_29_199
*1552 FILLER_29_211
*1553 FILLER_29_220
*1554 FILLER_29_225
*1555 FILLER_29_239
*1556 FILLER_29_25
*1557 FILLER_29_259
*1558 FILLER_29_271
*1559 FILLER_29_279
*1560 FILLER_29_289
*1561 FILLER_29_297
*1562 FILLER_29_3
*1563 FILLER_29_32
*1564 FILLER_29_52
*1565 FILLER_29_73
*1566 FILLER_29_86
*1567 FILLER_29_96
*1568 FILLER_2_116
*1569 FILLER_2_136
*1570 FILLER_2_141
*1571 FILLER_2_145
*1572 FILLER_2_162
*1573 FILLER_2_170
*1574 FILLER_2_187
*1575 FILLER_2_195
*1576 FILLER_2_21
*1577 FILLER_2_213
*1578 FILLER_2_233
*1579 FILLER_2_245
*1580 FILLER_2_251
*1581 FILLER_2_261
*1582 FILLER_2_269
*1583 FILLER_2_27
*1584 FILLER_2_287
*1585 FILLER_2_29
*1586 FILLER_2_295
*1587 FILLER_2_3
*1588 FILLER_2_41
*1589 FILLER_2_66
*1590 FILLER_2_80
*1591 FILLER_2_85
*1592 FILLER_2_96
*1593 FILLER_30_116
*1594 FILLER_30_12
*1595 FILLER_30_124
*1596 FILLER_30_136
*1597 FILLER_30_141
*1598 FILLER_30_145
*1599 FILLER_30_162
*1600 FILLER_30_174
*1601 FILLER_30_186
*1602 FILLER_30_194
*1603 FILLER_30_205
*1604 FILLER_30_214
*1605 FILLER_30_228
*1606 FILLER_30_236
*1607 FILLER_30_24
*1608 FILLER_30_246
*1609 FILLER_30_261
*1610 FILLER_30_269
*1611 FILLER_30_291
*1612 FILLER_30_3
*1613 FILLER_30_45
*1614 FILLER_30_70
*1615 FILLER_30_80
*1616 FILLER_30_85
*1617 FILLER_30_96
*1618 FILLER_31_104
*1619 FILLER_31_12
*1620 FILLER_31_129
*1621 FILLER_31_138
*1622 FILLER_31_158
*1623 FILLER_31_166
*1624 FILLER_31_175
*1625 FILLER_31_195
*1626 FILLER_31_207
*1627 FILLER_31_219
*1628 FILLER_31_223
*1629 FILLER_31_230
*1630 FILLER_31_255
*1631 FILLER_31_259
*1632 FILLER_31_276
*1633 FILLER_31_290
*1634 FILLER_31_298
*1635 FILLER_31_3
*1636 FILLER_31_32
*1637 FILLER_31_52
*1638 FILLER_31_57
*1639 FILLER_31_64
*1640 FILLER_31_84
*1641 FILLER_32_106
*1642 FILLER_32_114
*1643 FILLER_32_134
*1644 FILLER_32_157
*1645 FILLER_32_169
*1646 FILLER_32_175
*1647 FILLER_32_192
*1648 FILLER_32_201
*1649 FILLER_32_22
*1650 FILLER_32_226
*1651 FILLER_32_248
*1652 FILLER_32_269
*1653 FILLER_32_29
*1654 FILLER_32_291
*1655 FILLER_32_3
*1656 FILLER_32_34
*1657 FILLER_32_59
*1658 FILLER_32_63
*1659 FILLER_32_80
*1660 FILLER_33_10
*1661 FILLER_33_108
*1662 FILLER_33_121
*1663 FILLER_33_133
*1664 FILLER_33_139
*1665 FILLER_33_149
*1666 FILLER_33_161
*1667 FILLER_33_167
*1668 FILLER_33_174
*1669 FILLER_33_199
*1670 FILLER_33_203
*1671 FILLER_33_220
*1672 FILLER_33_241
*1673 FILLER_33_261
*1674 FILLER_33_273
*1675 FILLER_33_279
*1676 FILLER_33_289
*1677 FILLER_33_297
*1678 FILLER_33_3
*1679 FILLER_33_30
*1680 FILLER_33_50
*1681 FILLER_33_57
*1682 FILLER_33_68
*1683 FILLER_33_92
*1684 FILLER_34_108
*1685 FILLER_34_124
*1686 FILLER_34_136
*1687 FILLER_34_145
*1688 FILLER_34_165
*1689 FILLER_34_173
*1690 FILLER_34_192
*1691 FILLER_34_201
*1692 FILLER_34_22
*1693 FILLER_34_221
*1694 FILLER_34_229
*1695 FILLER_34_248
*1696 FILLER_34_261
*1697 FILLER_34_286
*1698 FILLER_34_298
*1699 FILLER_34_3
*1700 FILLER_34_45
*1701 FILLER_34_52
*1702 FILLER_34_64
*1703 FILLER_34_80
*1704 FILLER_34_88
*1705 FILLER_35_101
*1706 FILLER_35_108
*1707 FILLER_35_113
*1708 FILLER_35_125
*1709 FILLER_35_149
*1710 FILLER_35_155
*1711 FILLER_35_164
*1712 FILLER_35_185
*1713 FILLER_35_189
*1714 FILLER_35_19
*1715 FILLER_35_196
*1716 FILLER_35_220
*1717 FILLER_35_231
*1718 FILLER_35_235
*1719 FILLER_35_252
*1720 FILLER_35_276
*1721 FILLER_35_281
*1722 FILLER_35_293
*1723 FILLER_35_43
*1724 FILLER_35_52
*1725 FILLER_35_6
*1726 FILLER_35_73
*1727 FILLER_35_81
*1728 FILLER_36_116
*1729 FILLER_36_136
*1730 FILLER_36_141
*1731 FILLER_36_147
*1732 FILLER_36_172
*1733 FILLER_36_178
*1734 FILLER_36_187
*1735 FILLER_36_195
*1736 FILLER_36_20
*1737 FILLER_36_205
*1738 FILLER_36_213
*1739 FILLER_36_236
*1740 FILLER_36_248
*1741 FILLER_36_253
*1742 FILLER_36_259
*1743 FILLER_36_276
*1744 FILLER_36_288
*1745 FILLER_36_29
*1746 FILLER_36_296
*1747 FILLER_36_38
*1748 FILLER_36_63
*1749 FILLER_36_7
*1750 FILLER_36_75
*1751 FILLER_36_83
*1752 FILLER_36_85
*1753 FILLER_36_96
*1754 FILLER_37_10
*1755 FILLER_37_108
*1756 FILLER_37_118
*1757 FILLER_37_143
*1758 FILLER_37_147
*1759 FILLER_37_164
*1760 FILLER_37_185
*1761 FILLER_37_197
*1762 FILLER_37_205
*1763 FILLER_37_214
*1764 FILLER_37_222
*1765 FILLER_37_241
*1766 FILLER_37_251
*1767 FILLER_37_255
*1768 FILLER_37_272
*1769 FILLER_37_289
*1770 FILLER_37_297
*1771 FILLER_37_3
*1772 FILLER_37_30
*1773 FILLER_37_50
*1774 FILLER_37_57
*1775 FILLER_37_66
*1776 FILLER_37_91
*1777 FILLER_37_99
*1778 FILLER_38_106
*1779 FILLER_38_114
*1780 FILLER_38_136
*1781 FILLER_38_145
*1782 FILLER_38_165
*1783 FILLER_38_172
*1784 FILLER_38_192
*1785 FILLER_38_213
*1786 FILLER_38_22
*1787 FILLER_38_233
*1788 FILLER_38_245
*1789 FILLER_38_251
*1790 FILLER_38_261
*1791 FILLER_38_269
*1792 FILLER_38_29
*1793 FILLER_38_291
*1794 FILLER_38_3
*1795 FILLER_38_39
*1796 FILLER_38_43
*1797 FILLER_38_60
*1798 FILLER_38_80
*1799 FILLER_39_108