*SPEF "ieee 1481-1999"
*DESIGN "scan_controller"
*DATE "11:11:11 Fri 11 11, 1111"
*VENDOR "OpenRCX"
*PROGRAM "Parallel Extraction"
*VERSION "1.0"
*DESIGN_FLOW "NAME_SCOPE LOCAL" "PIN_CAP NONE"
*DIVIDER /
*DELIMITER :
*BUS_DELIMITER []
*T_UNIT 1 NS
*C_UNIT 1 PF
*R_UNIT 1 OHM
*L_UNIT 1 HENRY

*NAME_MAP
*1 active_select[0]
*2 active_select[1]
*3 active_select[2]
*4 active_select[3]
*5 active_select[4]
*6 active_select[5]
*7 active_select[6]
*8 active_select[7]
*9 active_select[8]
*10 clk
*11 driver_sel[0]
*12 driver_sel[1]
*13 inputs[0]
*14 inputs[1]
*15 inputs[2]
*16 inputs[3]
*17 inputs[4]
*18 inputs[5]
*19 inputs[6]
*20 inputs[7]
*21 la_scan_clk_in
*22 la_scan_data_in
*23 la_scan_data_out
*24 la_scan_latch_en
*25 la_scan_select
*26 net44
*27 net54
*28 net55
*29 net56
*30 net57
*31 net58
*32 net59
*33 net60
*34 net61
*35 net62
*36 net63
*37 net45
*38 net64
*39 net65
*40 net66
*41 net67
*42 net68
*43 net69
*44 net70
*45 net71
*46 net72
*47 net73
*48 net46
*49 net74
*50 net75
*51 net76
*52 net77
*53 net78
*54 net79
*55 net80
*56 net81
*57 net47
*58 net48
*59 net49
*60 net50
*61 net51
*62 net52
*63 net53
*64 outputs[0]
*65 outputs[1]
*66 outputs[2]
*67 outputs[3]
*68 outputs[4]
*69 outputs[5]
*70 outputs[6]
*71 outputs[7]
*72 ready
*73 reset
*74 scan_clk_in
*75 scan_clk_out
*76 scan_data_in
*77 scan_data_out
*78 scan_latch_en
*79 scan_select
*80 set_clk_div
*81 slow_clk
*84 _000_
*85 _001_
*86 _002_
*87 _003_
*88 _004_
*89 _005_
*90 _006_
*91 _007_
*92 _008_
*93 _009_
*94 _010_
*95 _011_
*96 _012_
*97 _013_
*98 _014_
*99 _015_
*100 _016_
*101 _017_
*102 _018_
*103 _019_
*104 _020_
*105 _021_
*106 _022_
*107 _023_
*108 _024_
*109 _025_
*110 _026_
*111 _027_
*112 _028_
*113 _029_
*114 _030_
*115 _031_
*116 _032_
*117 _033_
*118 _034_
*119 _035_
*120 _036_
*121 _037_
*122 _039_
*123 _041_
*124 _043_
*125 _044_
*126 _045_
*127 _046_
*128 _047_
*129 _048_
*130 _049_
*131 _050_
*132 _051_
*133 _052_
*134 _053_
*135 _054_
*136 _055_
*137 _056_
*138 _057_
*139 _058_
*140 _059_
*141 _060_
*142 _061_
*143 _062_
*144 _063_
*145 _064_
*146 _065_
*147 _066_
*148 _067_
*149 _068_
*150 _069_
*151 _070_
*152 _071_
*153 _072_
*154 _073_
*155 _074_
*156 _075_
*157 _076_
*158 _077_
*159 _078_
*160 _079_
*161 _080_
*162 _081_
*163 _082_
*164 _083_
*165 _084_
*166 _085_
*167 _086_
*168 _087_
*169 _088_
*170 _089_
*171 _090_
*172 _091_
*173 _092_
*174 _093_
*175 _094_
*176 _095_
*177 _096_
*178 _097_
*179 _098_
*180 _099_
*181 _100_
*182 _101_
*183 _102_
*184 _103_
*185 _104_
*186 _105_
*187 _106_
*188 _107_
*189 _108_
*190 _109_
*191 _110_
*192 _111_
*193 _112_
*194 _113_
*195 _114_
*196 _115_
*197 _116_
*198 _117_
*199 _118_
*200 _119_
*201 _120_
*202 _121_
*203 _122_
*204 _123_
*205 _124_
*206 _125_
*207 _126_
*208 _127_
*209 _128_
*210 _129_
*211 _130_
*212 _131_
*213 _132_
*214 _133_
*215 _134_
*216 _135_
*217 _136_
*218 _137_
*219 _138_
*220 _139_
*221 _140_
*222 _141_
*223 _142_
*224 _143_
*225 _144_
*226 _145_
*227 _146_
*228 _147_
*229 _148_
*230 _149_
*231 _150_
*232 _151_
*233 _152_
*234 _153_
*235 _154_
*236 _155_
*237 _156_
*238 _157_
*239 _158_
*240 _159_
*241 _160_
*242 _161_
*243 _162_
*244 _163_
*245 _164_
*246 _165_
*247 _166_
*248 _167_
*249 _168_
*250 _169_
*251 _170_
*252 _171_
*253 _172_
*254 _173_
*255 _174_
*256 _175_
*257 _176_
*258 _177_
*259 _178_
*260 _179_
*261 _180_
*262 _181_
*263 _182_
*264 _183_
*265 _184_
*266 _185_
*267 _186_
*268 _187_
*269 _188_
*270 _189_
*271 _190_
*272 _191_
*273 _192_
*274 _193_
*275 _194_
*276 _195_
*277 _196_
*278 _197_
*279 _198_
*280 _199_
*281 _200_
*282 _201_
*283 _202_
*284 _203_
*285 _204_
*286 _205_
*287 _206_
*288 _207_
*289 _208_
*290 _209_
*291 _210_
*292 _211_
*293 _212_
*294 _213_
*295 _214_
*296 _215_
*297 _216_
*298 _217_
*299 _218_
*300 _219_
*301 _220_
*302 _221_
*303 _222_
*304 _223_
*305 _224_
*306 _225_
*307 _226_
*308 _227_
*309 _228_
*310 _229_
*311 _230_
*312 _231_
*313 _232_
*314 _233_
*315 _234_
*316 _235_
*317 _236_
*318 _237_
*319 _238_
*320 _239_
*321 _240_
*322 _241_
*323 _242_
*324 _243_
*325 _244_
*326 _245_
*327 _246_
*328 _247_
*329 _248_
*330 _249_
*331 _250_
*332 _251_
*333 _252_
*334 _253_
*335 _254_
*336 _255_
*337 _256_
*338 _257_
*339 _258_
*340 _259_
*341 _260_
*342 _261_
*343 _262_
*344 _263_
*345 _264_
*346 _265_
*347 _266_
*348 _267_
*349 _268_
*350 _269_
*351 _270_
*352 _271_
*353 _272_
*354 _273_
*355 _274_
*356 _275_
*357 _276_
*358 _277_
*359 _278_
*360 _279_
*361 _280_
*362 _281_
*363 _282_
*364 _283_
*365 _284_
*366 _285_
*367 _286_
*368 _287_
*369 _288_
*370 _289_
*371 _290_
*372 _291_
*373 _292_
*374 _293_
*375 _294_
*376 _295_
*377 _296_
*378 _297_
*379 _298_
*380 _299_
*381 _300_
*382 _301_
*383 _302_
*384 _303_
*385 _304_
*386 _305_
*387 _306_
*388 _307_
*389 _308_
*390 _309_
*391 _310_
*392 _311_
*393 _312_
*394 _313_
*395 _314_
*396 _315_
*397 _316_
*398 _317_
*399 _318_
*400 _319_
*401 _320_
*402 _321_
*403 _322_
*404 _323_
*405 _324_
*406 _325_
*407 _326_
*408 _327_
*409 _328_
*410 _329_
*411 _330_
*412 _331_
*413 _332_
*414 _333_
*415 _334_
*416 _335_
*417 _336_
*418 _337_
*419 _338_
*420 _339_
*421 _340_
*422 _341_
*423 _342_
*424 _343_
*425 _344_
*426 _345_
*427 _346_
*428 _347_
*429 _348_
*430 _349_
*431 _350_
*432 _351_
*433 _352_
*434 _353_
*435 _354_
*436 _355_
*437 _356_
*438 _357_
*439 _358_
*440 _359_
*441 _360_
*442 _361_
*443 _362_
*444 _363_
*445 _364_
*446 _365_
*447 _366_
*448 _367_
*449 _368_
*450 active
*451 aio_input_reg\[0\]
*452 aio_input_reg\[1\]
*453 aio_input_reg\[2\]
*454 aio_input_reg\[3\]
*455 aio_input_reg\[4\]
*456 aio_input_reg\[5\]
*457 aio_input_reg\[6\]
*458 aio_input_reg\[7\]
*459 aio_input_sh
*460 aio_input_shift\[0\]
*461 aio_input_shift\[1\]
*462 aio_input_shift\[2\]
*463 aio_input_shift\[3\]
*464 aio_input_shift\[4\]
*465 aio_input_shift\[5\]
*466 aio_input_shift\[6\]
*467 aio_input_shift\[7\]
*468 aio_input_sync\[0\]
*469 aio_input_sync\[1\]
*470 aio_input_sync\[2\]
*471 aio_input_sync\[3\]
*472 aio_input_sync\[4\]
*473 aio_input_sync\[5\]
*474 aio_input_sync\[6\]
*475 aio_input_sync\[7\]
*476 aio_output_cap
*477 aio_output_reg\[0\]
*478 aio_output_reg\[1\]
*479 aio_output_reg\[2\]
*480 aio_output_reg\[3\]
*481 aio_output_reg\[4\]
*482 aio_output_reg\[5\]
*483 aio_output_reg\[6\]
*484 aio_output_reg\[7\]
*485 aio_output_shift\[0\]
*486 aio_output_shift\[1\]
*487 aio_output_shift\[2\]
*488 aio_output_shift\[3\]
*489 aio_output_shift\[4\]
*490 aio_output_shift\[5\]
*491 aio_output_shift\[6\]
*492 aio_output_shift\[7\]
*493 bit_cnt\[0\]
*494 bit_cnt\[1\]
*495 bit_cnt\[2\]
*496 clk_divider_I\.active
*497 clk_divider_I\.ce
*498 clk_divider_I\.compare\[0\]
*499 clk_divider_I\.compare\[1\]
*500 clk_divider_I\.compare\[2\]
*501 clk_divider_I\.compare\[3\]
*502 clk_divider_I\.compare\[4\]
*503 clk_divider_I\.compare\[5\]
*504 clk_divider_I\.compare\[6\]
*505 clk_divider_I\.compare\[7\]
*506 clk_divider_I\.counter\[0\]
*507 clk_divider_I\.counter\[1\]
*508 clk_divider_I\.counter\[2\]
*509 clk_divider_I\.counter\[3\]
*510 clk_divider_I\.counter\[4\]
*511 clk_divider_I\.counter\[5\]
*512 clk_divider_I\.counter\[6\]
*513 clk_divider_I\.counter\[7\]
*514 clk_divider_I\.reset
*515 clk_divider_I\.set_now
*516 clk_divider_I\.set_sync\[0\]
*517 clk_divider_I\.set_sync\[1\]
*518 clknet_0_clk
*519 clknet_0_scan_clk_in
*520 clknet_1_0__leaf_scan_clk_in
*521 clknet_1_1__leaf_scan_clk_in
*522 clknet_3_0__leaf_clk
*523 clknet_3_1__leaf_clk
*524 clknet_3_2__leaf_clk
*525 clknet_3_3__leaf_clk
*526 clknet_3_4__leaf_clk
*527 clknet_3_5__leaf_clk
*528 clknet_3_6__leaf_clk
*529 clknet_3_7__leaf_clk
*530 int_scan_clk_out
*531 int_scan_data_out
*532 int_scan_latch_en
*533 int_scan_select
*534 net1
*535 net10
*536 net11
*537 net12
*538 net13
*539 net14
*540 net15
*541 net16
*542 net17
*543 net18
*544 net19
*545 net2
*546 net20
*547 net21
*548 net22
*549 net23
*550 net24
*551 net25
*552 net26
*553 net27
*554 net28
*555 net29
*556 net3
*557 net30
*558 net31
*559 net32
*560 net33
*561 net34
*562 net35
*563 net36
*564 net37
*565 net38
*566 net39
*567 net4
*568 net40
*569 net41
*570 net42
*571 net43
*572 net5
*573 net6
*574 net7
*575 net8
*576 net82
*577 net83
*578 net84
*579 net85
*580 net86
*581 net87
*582 net88
*583 net89
*584 net9
*585 net90
*586 net91
*587 net92
*588 proj_cnt\[0\]
*589 proj_cnt\[1\]
*590 proj_cnt\[2\]
*591 proj_cnt\[3\]
*592 proj_cnt\[4\]
*593 proj_cnt\[5\]
*594 proj_cnt\[6\]
*595 proj_cnt\[7\]
*596 proj_cnt\[8\]
*597 rst_shift\[0\]
*598 rst_shift\[1\]
*599 state\[0\]
*600 state\[12\]
*601 state\[13\]
*602 state\[1\]
*603 state\[2\]
*604 state\[3\]
*605 state\[4\]
*606 state\[5\]
*607 state\[6\]
*608 state\[8\]
*609 state\[9\]
*610 ws_cfg\[0\]
*611 ws_cfg\[1\]
*612 ws_cfg\[2\]
*613 ws_cfg\[3\]
*614 ws_cfg\[4\]
*615 ws_cfg\[5\]
*616 ws_cfg\[6\]
*617 ws_cfg\[7\]
*618 ws_cnt\[0\]
*619 ws_cnt\[1\]
*620 ws_cnt\[2\]
*621 ws_cnt\[3\]
*622 ws_cnt\[4\]
*623 ws_cnt\[5\]
*624 ws_cnt\[6\]
*625 ws_cnt\[7\]
*626 ws_set_now
*627 ws_set_sync\[0\]
*628 ws_set_sync\[1\]
*629 ws_set_sync\[2\]
*630 ANTENNA_0
*631 ANTENNA_1
*632 ANTENNA_2
*633 FILLER_0_110
*634 FILLER_0_116
*635 FILLER_0_128
*636 FILLER_0_13
*637 FILLER_0_132
*638 FILLER_0_141
*639 FILLER_0_146
*640 FILLER_0_157
*641 FILLER_0_165
*642 FILLER_0_169
*643 FILLER_0_177
*644 FILLER_0_188
*645 FILLER_0_197
*646 FILLER_0_202
*647 FILLER_0_210
*648 FILLER_0_216
*649 FILLER_0_225
*650 FILLER_0_233
*651 FILLER_0_238
*652 FILLER_0_25
*653 FILLER_0_250
*654 FILLER_0_256
*655 FILLER_0_268
*656 FILLER_0_272
*657 FILLER_0_281
*658 FILLER_0_287
*659 FILLER_0_299
*660 FILLER_0_307
*661 FILLER_0_312
*662 FILLER_0_32
*663 FILLER_0_321
*664 FILLER_0_333
*665 FILLER_0_337
*666 FILLER_0_345
*667 FILLER_0_357
*668 FILLER_0_363
*669 FILLER_0_365
*670 FILLER_0_373
*671 FILLER_0_378
*672 FILLER_0_390
*673 FILLER_0_396
*674 FILLER_0_408
*675 FILLER_0_41
*676 FILLER_0_412
*677 FILLER_0_421
*678 FILLER_0_426
*679 FILLER_0_438
*680 FILLER_0_446
*681 FILLER_0_449
*682 FILLER_0_457
*683 FILLER_0_469
*684 FILLER_0_53
*685 FILLER_0_57
*686 FILLER_0_6
*687 FILLER_0_63
*688 FILLER_0_71
*689 FILLER_0_76
*690 FILLER_0_85
*691 FILLER_0_93
*692 FILLER_0_98
*693 FILLER_10_101
*694 FILLER_10_108
*695 FILLER_10_116
*696 FILLER_10_133
*697 FILLER_10_139
*698 FILLER_10_141
*699 FILLER_10_15
*700 FILLER_10_158
*701 FILLER_10_171
*702 FILLER_10_178
*703 FILLER_10_186
*704 FILLER_10_192
*705 FILLER_10_213
*706 FILLER_10_226
*707 FILLER_10_248
*708 FILLER_10_253
*709 FILLER_10_27
*710 FILLER_10_271
*711 FILLER_10_29
*712 FILLER_10_291
*713 FILLER_10_3
*714 FILLER_10_304
*715 FILLER_10_309
*716 FILLER_10_327
*717 FILLER_10_335
*718 FILLER_10_353
*719 FILLER_10_360
*720 FILLER_10_368
*721 FILLER_10_375
*722 FILLER_10_387
*723 FILLER_10_399
*724 FILLER_10_411
*725 FILLER_10_416
*726 FILLER_10_437
*727 FILLER_10_446
*728 FILLER_10_458
*729 FILLER_10_469
*730 FILLER_10_47
*731 FILLER_10_55
*732 FILLER_10_74
*733 FILLER_10_82
*734 FILLER_11_104
*735 FILLER_11_113
*736 FILLER_11_131
*737 FILLER_11_144
*738 FILLER_11_164
*739 FILLER_11_169
*740 FILLER_11_181
*741 FILLER_11_200
*742 FILLER_11_213
*743 FILLER_11_22
*744 FILLER_11_220
*745 FILLER_11_245
*746 FILLER_11_253
*747 FILLER_11_270
*748 FILLER_11_278
*749 FILLER_11_290
*750 FILLER_11_298
*751 FILLER_11_306
*752 FILLER_11_310
*753 FILLER_11_318
*754 FILLER_11_326
*755 FILLER_11_332
*756 FILLER_11_337
*757 FILLER_11_343
*758 FILLER_11_351
*759 FILLER_11_369
*760 FILLER_11_381
*761 FILLER_11_389
*762 FILLER_11_393
*763 FILLER_11_397
*764 FILLER_11_408
*765 FILLER_11_42
*766 FILLER_11_428
*767 FILLER_11_442
*768 FILLER_11_454
*769 FILLER_11_46
*770 FILLER_11_461
*771 FILLER_11_465
*772 FILLER_11_469
*773 FILLER_11_52
*774 FILLER_11_6
*775 FILLER_11_62
*776 FILLER_11_66
*777 FILLER_11_77
*778 FILLER_11_84
*779 FILLER_12_119
*780 FILLER_12_136
*781 FILLER_12_150
*782 FILLER_12_174
*783 FILLER_12_186
*784 FILLER_12_194
*785 FILLER_12_197
*786 FILLER_12_219
*787 FILLER_12_227
*788 FILLER_12_24
*789 FILLER_12_248
*790 FILLER_12_258
*791 FILLER_12_265
*792 FILLER_12_291
*793 FILLER_12_299
*794 FILLER_12_3
*795 FILLER_12_304
*796 FILLER_12_309
*797 FILLER_12_314
*798 FILLER_12_32
*799 FILLER_12_325
*800 FILLER_12_335
*801 FILLER_12_343
*802 FILLER_12_360
*803 FILLER_12_371
*804 FILLER_12_383
*805 FILLER_12_391
*806 FILLER_12_397
*807 FILLER_12_406
*808 FILLER_12_416
*809 FILLER_12_427
*810 FILLER_12_447
*811 FILLER_12_456
*812 FILLER_12_463
*813 FILLER_12_471
*814 FILLER_12_52
*815 FILLER_12_65
*816 FILLER_12_76
*817 FILLER_12_85
*818 FILLER_12_97
*819 FILLER_13_107
*820 FILLER_13_111
*821 FILLER_13_122
*822 FILLER_13_128
*823 FILLER_13_149
*824 FILLER_13_164
*825 FILLER_13_172
*826 FILLER_13_198
*827 FILLER_13_208
*828 FILLER_13_217
*829 FILLER_13_223
*830 FILLER_13_235
*831 FILLER_13_24
*832 FILLER_13_241
*833 FILLER_13_262
*834 FILLER_13_270
*835 FILLER_13_278
*836 FILLER_13_281
*837 FILLER_13_285
*838 FILLER_13_3
*839 FILLER_13_306
*840 FILLER_13_326
*841 FILLER_13_334
*842 FILLER_13_337
*843 FILLER_13_348
*844 FILLER_13_361
*845 FILLER_13_371
*846 FILLER_13_379
*847 FILLER_13_386
*848 FILLER_13_393
*849 FILLER_13_401
*850 FILLER_13_411
*851 FILLER_13_425
*852 FILLER_13_437
*853 FILLER_13_44
*854 FILLER_13_444
*855 FILLER_13_456
*856 FILLER_13_463
*857 FILLER_13_471
*858 FILLER_13_51
*859 FILLER_13_55
*860 FILLER_13_66
*861 FILLER_13_7
*862 FILLER_13_78
*863 FILLER_13_85
*864 FILLER_14_109
*865 FILLER_14_121
*866 FILLER_14_125
*867 FILLER_14_131
*868 FILLER_14_139
*869 FILLER_14_146
*870 FILLER_14_15
*871 FILLER_14_153
*872 FILLER_14_180
*873 FILLER_14_188
*874 FILLER_14_192
*875 FILLER_14_197
*876 FILLER_14_201
*877 FILLER_14_205
*878 FILLER_14_211
*879 FILLER_14_228
*880 FILLER_14_236
*881 FILLER_14_24
*882 FILLER_14_244
*883 FILLER_14_248
*884 FILLER_14_253
*885 FILLER_14_260
*886 FILLER_14_268
*887 FILLER_14_282
*888 FILLER_14_289
*889 FILLER_14_3
*890 FILLER_14_300
*891 FILLER_14_329
*892 FILLER_14_353
*893 FILLER_14_361
*894 FILLER_14_370
*895 FILLER_14_377
*896 FILLER_14_384
*897 FILLER_14_392
*898 FILLER_14_396
*899 FILLER_14_416
*900 FILLER_14_429
*901 FILLER_14_441
*902 FILLER_14_45
*903 FILLER_14_451
*904 FILLER_14_460
*905 FILLER_14_472
*906 FILLER_14_53
*907 FILLER_14_74
*908 FILLER_14_82
*909 FILLER_14_88
*910 FILLER_14_92
*911 FILLER_15_101
*912 FILLER_15_108
*913 FILLER_15_11
*914 FILLER_15_113
*915 FILLER_15_121
*916 FILLER_15_129
*917 FILLER_15_15
*918 FILLER_15_150
*919 FILLER_15_157
*920 FILLER_15_164
*921 FILLER_15_169
*922 FILLER_15_177
*923 FILLER_15_183
*924 FILLER_15_195
*925 FILLER_15_207
*926 FILLER_15_215
*927 FILLER_15_220
*928 FILLER_15_234
*929 FILLER_15_24
*930 FILLER_15_241
*931 FILLER_15_253
*932 FILLER_15_274
*933 FILLER_15_28
*934 FILLER_15_281
*935 FILLER_15_293
*936 FILLER_15_319
*937 FILLER_15_326
*938 FILLER_15_334
*939 FILLER_15_337
*940 FILLER_15_341
*941 FILLER_15_348
*942 FILLER_15_354
*943 FILLER_15_375
*944 FILLER_15_382
*945 FILLER_15_390
*946 FILLER_15_393
*947 FILLER_15_398
*948 FILLER_15_407
*949 FILLER_15_421
*950 FILLER_15_436
*951 FILLER_15_443
*952 FILLER_15_447
*953 FILLER_15_449
*954 FILLER_15_45
*955 FILLER_15_458
*956 FILLER_15_469
*957 FILLER_15_53
*958 FILLER_15_57
*959 FILLER_15_69
*960 FILLER_15_7
*961 FILLER_15_93
*962 FILLER_16_101
*963 FILLER_16_114
*964 FILLER_16_118
*965 FILLER_16_123
*966 FILLER_16_136
*967 FILLER_16_141
*968 FILLER_16_162
*969 FILLER_16_166
*970 FILLER_16_170
*971 FILLER_16_185
*972 FILLER_16_192
*973 FILLER_16_197
*974 FILLER_16_214
*975 FILLER_16_226
*976 FILLER_16_237
*977 FILLER_16_24
*978 FILLER_16_248
*979 FILLER_16_253
*980 FILLER_16_263
*981 FILLER_16_271
*982 FILLER_16_280
*983 FILLER_16_288
*984 FILLER_16_29
*985 FILLER_16_3
*986 FILLER_16_300
*987 FILLER_16_309
*988 FILLER_16_313
*989 FILLER_16_317
*990 FILLER_16_326
*991 FILLER_16_334
*992 FILLER_16_338
*993 FILLER_16_360
*994 FILLER_16_375
*995 FILLER_16_383
*996 FILLER_16_388
*997 FILLER_16_396
*998 FILLER_16_416
*999 FILLER_16_430
*1000 FILLER_16_440
*1001 FILLER_16_447
*1002 FILLER_16_456
*1003 FILLER_16_463
*1004 FILLER_16_471
*1005 FILLER_16_51
*1006 FILLER_16_73
*1007 FILLER_16_80
*1008 FILLER_17_105
*1009 FILLER_17_111
*1010 FILLER_17_113
*1011 FILLER_17_123
*1012 FILLER_17_135
*1013 FILLER_17_141
*1014 FILLER_17_145
*1015 FILLER_17_15
*1016 FILLER_17_158
*1017 FILLER_17_166
*1018 FILLER_17_169
*1019 FILLER_17_176
*1020 FILLER_17_202
*1021 FILLER_17_212
*1022 FILLER_17_216
*1023 FILLER_17_220
*1024 FILLER_17_229
*1025 FILLER_17_236
*1026 FILLER_17_243
*1027 FILLER_17_252
*1028 FILLER_17_276
*1029 FILLER_17_284
*1030 FILLER_17_291
*1031 FILLER_17_298
*1032 FILLER_17_3
*1033 FILLER_17_306
*1034 FILLER_17_314
*1035 FILLER_17_320
*1036 FILLER_17_329
*1037 FILLER_17_335
*1038 FILLER_17_337
*1039 FILLER_17_345
*1040 FILLER_17_352
*1041 FILLER_17_359
*1042 FILLER_17_367
*1043 FILLER_17_37
*1044 FILLER_17_379
*1045 FILLER_17_388
*1046 FILLER_17_399
*1047 FILLER_17_407
*1048 FILLER_17_419
*1049 FILLER_17_430
*1050 FILLER_17_440
*1051 FILLER_17_459
*1052 FILLER_17_471
*1053 FILLER_17_52
*1054 FILLER_17_57
*1055 FILLER_17_62
*1056 FILLER_17_76
*1057 FILLER_17_84
*1058 FILLER_18_125
*1059 FILLER_18_133
*1060 FILLER_18_139
*1061 FILLER_18_144
*1062 FILLER_18_148
*1063 FILLER_18_15
*1064 FILLER_18_152
*1065 FILLER_18_158
*1066 FILLER_18_167
*1067 FILLER_18_174
*1068 FILLER_18_187
*1069 FILLER_18_195
*1070 FILLER_18_206
*1071 FILLER_18_210
*1072 FILLER_18_232
*1073 FILLER_18_24
*1074 FILLER_18_241
*1075 FILLER_18_248
*1076 FILLER_18_258
*1077 FILLER_18_268
*1078 FILLER_18_274
*1079 FILLER_18_284
*1080 FILLER_18_288
*1081 FILLER_18_29
*1082 FILLER_18_292
*1083 FILLER_18_298
*1084 FILLER_18_3
*1085 FILLER_18_304
*1086 FILLER_18_315
*1087 FILLER_18_323
*1088 FILLER_18_34
*1089 FILLER_18_345
*1090 FILLER_18_358
*1091 FILLER_18_365
*1092 FILLER_18_377
*1093 FILLER_18_38
*1094 FILLER_18_386
*1095 FILLER_18_406
*1096 FILLER_18_416
*1097 FILLER_18_421
*1098 FILLER_18_430
*1099 FILLER_18_450
*1100 FILLER_18_457
*1101 FILLER_18_469
*1102 FILLER_18_55
*1103 FILLER_18_67
*1104 FILLER_18_75
*1105 FILLER_18_80
*1106 FILLER_18_85
*1107 FILLER_18_89
*1108 FILLER_18_99
*1109 FILLER_19_100
*1110 FILLER_19_108
*1111 FILLER_19_113
*1112 FILLER_19_121
*1113 FILLER_19_130
*1114 FILLER_19_139
*1115 FILLER_19_149
*1116 FILLER_19_15
*1117 FILLER_19_162
*1118 FILLER_19_19
*1119 FILLER_19_190
*1120 FILLER_19_205
*1121 FILLER_19_209
*1122 FILLER_19_220
*1123 FILLER_19_225
*1124 FILLER_19_23
*1125 FILLER_19_235
*1126 FILLER_19_243
*1127 FILLER_19_255
*1128 FILLER_19_261
*1129 FILLER_19_267
*1130 FILLER_19_276
*1131 FILLER_19_3
*1132 FILLER_19_301
*1133 FILLER_19_325
*1134 FILLER_19_332
*1135 FILLER_19_35
*1136 FILLER_19_353
*1137 FILLER_19_366
*1138 FILLER_19_379
*1139 FILLER_19_391
*1140 FILLER_19_409
*1141 FILLER_19_413
*1142 FILLER_19_419
*1143 FILLER_19_427
*1144 FILLER_19_444
*1145 FILLER_19_449
*1146 FILLER_19_461
*1147 FILLER_19_465
*1148 FILLER_19_469
*1149 FILLER_19_52
*1150 FILLER_19_57
*1151 FILLER_19_69
*1152 FILLER_19_81
*1153 FILLER_19_87
*1154 FILLER_1_108
*1155 FILLER_1_113
*1156 FILLER_1_125
*1157 FILLER_1_131
*1158 FILLER_1_143
*1159 FILLER_1_155
*1160 FILLER_1_164
*1161 FILLER_1_169
*1162 FILLER_1_173
*1163 FILLER_1_177
*1164 FILLER_1_18
*1165 FILLER_1_202
*1166 FILLER_1_209
*1167 FILLER_1_221
*1168 FILLER_1_225
*1169 FILLER_1_229
*1170 FILLER_1_240
*1171 FILLER_1_247
*1172 FILLER_1_259
*1173 FILLER_1_271
*1174 FILLER_1_279
*1175 FILLER_1_281
*1176 FILLER_1_293
*1177 FILLER_1_30
*1178 FILLER_1_305
*1179 FILLER_1_317
*1180 FILLER_1_325
*1181 FILLER_1_331
*1182 FILLER_1_335
*1183 FILLER_1_337
*1184 FILLER_1_349
*1185 FILLER_1_359
*1186 FILLER_1_364
*1187 FILLER_1_376
*1188 FILLER_1_388
*1189 FILLER_1_393
*1190 FILLER_1_405
*1191 FILLER_1_417
*1192 FILLER_1_42
*1193 FILLER_1_429
*1194 FILLER_1_441
*1195 FILLER_1_447
*1196 FILLER_1_449
*1197 FILLER_1_457
*1198 FILLER_1_461
*1199 FILLER_1_468
*1200 FILLER_1_472
*1201 FILLER_1_54
*1202 FILLER_1_6
*1203 FILLER_1_60
*1204 FILLER_1_72
*1205 FILLER_1_84
*1206 FILLER_1_96
*1207 FILLER_20_100
*1208 FILLER_20_105
*1209 FILLER_20_112
*1210 FILLER_20_132
*1211 FILLER_20_144
*1212 FILLER_20_148
*1213 FILLER_20_15
*1214 FILLER_20_157
*1215 FILLER_20_168
*1216 FILLER_20_176
*1217 FILLER_20_184
*1218 FILLER_20_188
*1219 FILLER_20_192
*1220 FILLER_20_200
*1221 FILLER_20_212
*1222 FILLER_20_217
*1223 FILLER_20_241
*1224 FILLER_20_248
*1225 FILLER_20_253
*1226 FILLER_20_265
*1227 FILLER_20_27
*1228 FILLER_20_271
*1229 FILLER_20_275
*1230 FILLER_20_29
*1231 FILLER_20_299
*1232 FILLER_20_3
*1233 FILLER_20_307
*1234 FILLER_20_309
*1235 FILLER_20_320
*1236 FILLER_20_332
*1237 FILLER_20_360
*1238 FILLER_20_365
*1239 FILLER_20_377
*1240 FILLER_20_389
*1241 FILLER_20_399
*1242 FILLER_20_408
*1243 FILLER_20_41
*1244 FILLER_20_412
*1245 FILLER_20_416
*1246 FILLER_20_421
*1247 FILLER_20_425
*1248 FILLER_20_430
*1249 FILLER_20_438
*1250 FILLER_20_450
*1251 FILLER_20_462
*1252 FILLER_20_470
*1253 FILLER_20_53
*1254 FILLER_20_61
*1255 FILLER_20_80
*1256 FILLER_20_92
*1257 FILLER_21_104
*1258 FILLER_21_113
*1259 FILLER_21_122
*1260 FILLER_21_142
*1261 FILLER_21_149
*1262 FILLER_21_157
*1263 FILLER_21_164
*1264 FILLER_21_172
*1265 FILLER_21_178
*1266 FILLER_21_18
*1267 FILLER_21_182
*1268 FILLER_21_191
*1269 FILLER_21_199
*1270 FILLER_21_208
*1271 FILLER_21_216
*1272 FILLER_21_220
*1273 FILLER_21_225
*1274 FILLER_21_243
*1275 FILLER_21_25
*1276 FILLER_21_254
*1277 FILLER_21_263
*1278 FILLER_21_275
*1279 FILLER_21_279
*1280 FILLER_21_281
*1281 FILLER_21_293
*1282 FILLER_21_305
*1283 FILLER_21_317
*1284 FILLER_21_329
*1285 FILLER_21_335
*1286 FILLER_21_337
*1287 FILLER_21_349
*1288 FILLER_21_359
*1289 FILLER_21_371
*1290 FILLER_21_383
*1291 FILLER_21_391
*1292 FILLER_21_393
*1293 FILLER_21_405
*1294 FILLER_21_417
*1295 FILLER_21_429
*1296 FILLER_21_441
*1297 FILLER_21_447
*1298 FILLER_21_449
*1299 FILLER_21_461
*1300 FILLER_21_47
*1301 FILLER_21_55
*1302 FILLER_21_57
*1303 FILLER_21_6
*1304 FILLER_21_65
*1305 FILLER_21_84
*1306 FILLER_21_95
*1307 FILLER_22_102
*1308 FILLER_22_114
*1309 FILLER_22_123
*1310 FILLER_22_135
*1311 FILLER_22_139
*1312 FILLER_22_141
*1313 FILLER_22_15
*1314 FILLER_22_153
*1315 FILLER_22_172
*1316 FILLER_22_192
*1317 FILLER_22_197
*1318 FILLER_22_205
*1319 FILLER_22_214
*1320 FILLER_22_222
*1321 FILLER_22_227
*1322 FILLER_22_231
*1323 FILLER_22_248
*1324 FILLER_22_253
*1325 FILLER_22_265
*1326 FILLER_22_27
*1327 FILLER_22_277
*1328 FILLER_22_289
*1329 FILLER_22_29
*1330 FILLER_22_3
*1331 FILLER_22_301
*1332 FILLER_22_307
*1333 FILLER_22_309
*1334 FILLER_22_321
*1335 FILLER_22_333
*1336 FILLER_22_345
*1337 FILLER_22_357
*1338 FILLER_22_363
*1339 FILLER_22_365
*1340 FILLER_22_377
*1341 FILLER_22_389
*1342 FILLER_22_401
*1343 FILLER_22_41
*1344 FILLER_22_413
*1345 FILLER_22_419
*1346 FILLER_22_421
*1347 FILLER_22_433
*1348 FILLER_22_445
*1349 FILLER_22_456
*1350 FILLER_22_464
*1351 FILLER_22_469
*1352 FILLER_22_53
*1353 FILLER_22_65
*1354 FILLER_22_71
*1355 FILLER_22_78
*1356 FILLER_22_90
*1357 FILLER_23_110
*1358 FILLER_23_113
*1359 FILLER_23_124
*1360 FILLER_23_131
*1361 FILLER_23_138
*1362 FILLER_23_15
*1363 FILLER_23_150
*1364 FILLER_23_162
*1365 FILLER_23_172
*1366 FILLER_23_180
*1367 FILLER_23_187
*1368 FILLER_23_198
*1369 FILLER_23_208
*1370 FILLER_23_220
*1371 FILLER_23_225
*1372 FILLER_23_233
*1373 FILLER_23_246
*1374 FILLER_23_258
*1375 FILLER_23_27
*1376 FILLER_23_270
*1377 FILLER_23_278
*1378 FILLER_23_281
*1379 FILLER_23_293
*1380 FILLER_23_3
*1381 FILLER_23_305
*1382 FILLER_23_317
*1383 FILLER_23_329
*1384 FILLER_23_335
*1385 FILLER_23_337
*1386 FILLER_23_349
*1387 FILLER_23_361
*1388 FILLER_23_373
*1389 FILLER_23_385
*1390 FILLER_23_39
*1391 FILLER_23_391
*1392 FILLER_23_393
*1393 FILLER_23_405
*1394 FILLER_23_417
*1395 FILLER_23_429
*1396 FILLER_23_441
*1397 FILLER_23_447
*1398 FILLER_23_449
*1399 FILLER_23_461
*1400 FILLER_23_51
*1401 FILLER_23_55
*1402 FILLER_23_57
*1403 FILLER_23_69
*1404 FILLER_23_86
*1405 FILLER_23_98
*1406 FILLER_24_109
*1407 FILLER_24_121
*1408 FILLER_24_133
*1409 FILLER_24_139
*1410 FILLER_24_141
*1411 FILLER_24_153
*1412 FILLER_24_165
*1413 FILLER_24_177
*1414 FILLER_24_185
*1415 FILLER_24_19
*1416 FILLER_24_190
*1417 FILLER_24_201
*1418 FILLER_24_213
*1419 FILLER_24_225
*1420 FILLER_24_237
*1421 FILLER_24_249
*1422 FILLER_24_253
*1423 FILLER_24_265
*1424 FILLER_24_27
*1425 FILLER_24_277
*1426 FILLER_24_289
*1427 FILLER_24_29
*1428 FILLER_24_301
*1429 FILLER_24_307
*1430 FILLER_24_309
*1431 FILLER_24_321
*1432 FILLER_24_333
*1433 FILLER_24_345
*1434 FILLER_24_357
*1435 FILLER_24_363
*1436 FILLER_24_368
*1437 FILLER_24_380
*1438 FILLER_24_392
*1439 FILLER_24_404
*1440 FILLER_24_41
*1441 FILLER_24_416
*1442 FILLER_24_421
*1443 FILLER_24_433
*1444 FILLER_24_445
*1445 FILLER_24_457
*1446 FILLER_24_469
*1447 FILLER_24_53
*1448 FILLER_24_65
*1449 FILLER_24_7
*1450 FILLER_24_77
*1451 FILLER_24_83
*1452 FILLER_24_85
*1453 FILLER_24_97
*1454 FILLER_25_105
*1455 FILLER_25_111
*1456 FILLER_25_113
*1457 FILLER_25_125
*1458 FILLER_25_137
*1459 FILLER_25_149
*1460 FILLER_25_15
*1461 FILLER_25_161
*1462 FILLER_25_167
*1463 FILLER_25_169
*1464 FILLER_25_181
*1465 FILLER_25_193
*1466 FILLER_25_205
*1467 FILLER_25_217
*1468 FILLER_25_223
*1469 FILLER_25_225
*1470 FILLER_25_237
*1471 FILLER_25_249
*1472 FILLER_25_261
*1473 FILLER_25_27
*1474 FILLER_25_273
*1475 FILLER_25_279
*1476 FILLER_25_281
*1477 FILLER_25_293
*1478 FILLER_25_3
*1479 FILLER_25_305
*1480 FILLER_25_317
*1481 FILLER_25_329
*1482 FILLER_25_335
*1483 FILLER_25_337
*1484 FILLER_25_349
*1485 FILLER_25_361
*1486 FILLER_25_373
*1487 FILLER_25_385
*1488 FILLER_25_39
*1489 FILLER_25_391
*1490 FILLER_25_393
*1491 FILLER_25_405
*1492 FILLER_25_417
*1493 FILLER_25_429
*1494 FILLER_25_441
*1495 FILLER_25_447
*1496 FILLER_25_449
*1497 FILLER_25_461
*1498 FILLER_25_465
*1499 FILLER_25_469
*1500 FILLER_25_51
*1501 FILLER_25_55
*1502 FILLER_25_57
*1503 FILLER_25_69
*1504 FILLER_25_81
*1505 FILLER_25_93
*1506 FILLER_26_109
*1507 FILLER_26_11
*1508 FILLER_26_121
*1509 FILLER_26_133
*1510 FILLER_26_139
*1511 FILLER_26_141
*1512 FILLER_26_153
*1513 FILLER_26_168
*1514 FILLER_26_175
*1515 FILLER_26_187
*1516 FILLER_26_195
*1517 FILLER_26_197
*1518 FILLER_26_209
*1519 FILLER_26_221
*1520 FILLER_26_23
*1521 FILLER_26_233
*1522 FILLER_26_245
*1523 FILLER_26_251
*1524 FILLER_26_253
*1525 FILLER_26_265
*1526 FILLER_26_27
*1527 FILLER_26_277
*1528 FILLER_26_289
*1529 FILLER_26_3
*1530 FILLER_26_301
*1531 FILLER_26_307
*1532 FILLER_26_309
*1533 FILLER_26_32
*1534 FILLER_26_321
*1535 FILLER_26_333
*1536 FILLER_26_345
*1537 FILLER_26_357
*1538 FILLER_26_363
*1539 FILLER_26_365
*1540 FILLER_26_377
*1541 FILLER_26_389
*1542 FILLER_26_401
*1543 FILLER_26_413
*1544 FILLER_26_419
*1545 FILLER_26_424
*1546 FILLER_26_436
*1547 FILLER_26_44
*1548 FILLER_26_448
*1549 FILLER_26_456
*1550 FILLER_26_461
*1551 FILLER_26_468
*1552 FILLER_26_472
*1553 FILLER_26_56
*1554 FILLER_26_68
*1555 FILLER_26_80
*1556 FILLER_26_85
*1557 FILLER_26_97
*1558 FILLER_27_109
*1559 FILLER_27_123
*1560 FILLER_27_132
*1561 FILLER_27_141
*1562 FILLER_27_146
*1563 FILLER_27_15
*1564 FILLER_27_158
*1565 FILLER_27_166
*1566 FILLER_27_173
*1567 FILLER_27_177
*1568 FILLER_27_182
*1569 FILLER_27_194
*1570 FILLER_27_197
*1571 FILLER_27_202
*1572 FILLER_27_210
*1573 FILLER_27_217
*1574 FILLER_27_223
*1575 FILLER_27_225
*1576 FILLER_27_23
*1577 FILLER_27_233
*1578 FILLER_27_237
*1579 FILLER_27_249
*1580 FILLER_27_256
*1581 FILLER_27_268
*1582 FILLER_27_27
*1583 FILLER_27_272
*1584 FILLER_27_281
*1585 FILLER_27_289
*1586 FILLER_27_29
*1587 FILLER_27_293
*1588 FILLER_27_3
*1589 FILLER_27_305
*1590 FILLER_27_312
*1591 FILLER_27_324
*1592 FILLER_27_328
*1593 FILLER_27_337
*1594 FILLER_27_34
*1595 FILLER_27_349
*1596 FILLER_27_361
*1597 FILLER_27_368
*1598 FILLER_27_377
*1599 FILLER_27_389
*1600 FILLER_27_393
*1601 FILLER_27_398
*1602 FILLER_27_406
*1603 FILLER_27_413
*1604 FILLER_27_419
*1605 FILLER_27_421
*1606 FILLER_27_429
*1607 FILLER_27_434
*1608 FILLER_27_446
*1609 FILLER_27_452
*1610 FILLER_27_461
*1611 FILLER_27_469
*1612 FILLER_27_48
*1613 FILLER_27_57
*1614 FILLER_27_62
*1615 FILLER_27_70
*1616 FILLER_27_76
*1617 FILLER_27_85
*1618 FILLER_27_93
*1619 FILLER_27_97
*1620 FILLER_2_109
*1621 FILLER_2_116
*1622 FILLER_2_129
*1623 FILLER_2_137
*1624 FILLER_2_141
*1625 FILLER_2_153
*1626 FILLER_2_162
*1627 FILLER_2_18
*1628 FILLER_2_187
*1629 FILLER_2_195
*1630 FILLER_2_218
*1631 FILLER_2_226
*1632 FILLER_2_233
*1633 FILLER_2_241
*1634 FILLER_2_247
*1635 FILLER_2_251
*1636 FILLER_2_256
*1637 FILLER_2_26
*1638 FILLER_2_268
*1639 FILLER_2_280
*1640 FILLER_2_287
*1641 FILLER_2_29
*1642 FILLER_2_291
*1643 FILLER_2_295
*1644 FILLER_2_304
*1645 FILLER_2_313
*1646 FILLER_2_320
*1647 FILLER_2_327
*1648 FILLER_2_336
*1649 FILLER_2_348
*1650 FILLER_2_360
*1651 FILLER_2_365
*1652 FILLER_2_377
*1653 FILLER_2_389
*1654 FILLER_2_401
*1655 FILLER_2_41
*1656 FILLER_2_413
*1657 FILLER_2_419
*1658 FILLER_2_421
*1659 FILLER_2_433
*1660 FILLER_2_445
*1661 FILLER_2_457
*1662 FILLER_2_465
*1663 FILLER_2_469
*1664 FILLER_2_53
*1665 FILLER_2_6
*1666 FILLER_2_65
*1667 FILLER_2_77
*1668 FILLER_2_83
*1669 FILLER_2_85
*1670 FILLER_2_97
*1671 FILLER_3_105
*1672 FILLER_3_111
*1673 FILLER_3_113
*1674 FILLER_3_133
*1675 FILLER_3_145
*1676 FILLER_3_15
*1677 FILLER_3_157
*1678 FILLER_3_165
*1679 FILLER_3_169
*1680 FILLER_3_173
*1681 FILLER_3_180
*1682 FILLER_3_191
*1683 FILLER_3_198
*1684 FILLER_3_210
*1685 FILLER_3_222
*1686 FILLER_3_225
*1687 FILLER_3_248
*1688 FILLER_3_255
*1689 FILLER_3_262
*1690 FILLER_3_27
*1691 FILLER_3_270
*1692 FILLER_3_274
*1693 FILLER_3_281
*1694 FILLER_3_3
*1695 FILLER_3_304
*1696 FILLER_3_308
*1697 FILLER_3_315
*1698 FILLER_3_323
*1699 FILLER_3_332
*1700 FILLER_3_357
*1701 FILLER_3_369
*1702 FILLER_3_381
*1703 FILLER_3_389
*1704 FILLER_3_39
*1705 FILLER_3_393
*1706 FILLER_3_405
*1707 FILLER_3_417
*1708 FILLER_3_429
*1709 FILLER_3_441
*1710 FILLER_3_447
*1711 FILLER_3_449
*1712 FILLER_3_461
*1713 FILLER_3_51
*1714 FILLER_3_55
*1715 FILLER_3_57
*1716 FILLER_3_69
*1717 FILLER_3_81
*1718 FILLER_3_93
*1719 FILLER_4_103
*1720 FILLER_4_116
*1721 FILLER_4_136
*1722 FILLER_4_144
*1723 FILLER_4_15