*SPEF "ieee 1481-1999"
*DESIGN "secretFile"
*DATE "11:11:11 Fri 11 11, 1111"
*VENDOR "OpenRCX"
*PROGRAM "Parallel Extraction"
*VERSION "1.0"
*DESIGN_FLOW "NAME_SCOPE LOCAL" "PIN_CAP NONE"
*DIVIDER /
*DELIMITER :
*BUS_DELIMITER []
*T_UNIT 1 NS
*C_UNIT 1 PF
*R_UNIT 1 OHM
*L_UNIT 1 HENRY

*NAME_MAP
*1 io_in[0]
*2 io_in[1]
*3 io_in[2]
*4 io_in[3]
*5 io_in[4]
*6 io_in[5]
*7 io_in[6]
*8 io_in[7]
*9 io_out[0]
*10 io_out[1]
*11 io_out[2]
*12 io_out[3]
*13 io_out[4]
*14 io_out[5]
*15 io_out[6]
*16 io_out[7]
*19 _0000_
*20 _0001_
*21 _0002_
*22 _0003_
*23 _0004_
*24 _0005_
*25 _0006_
*26 _0007_
*27 _0008_
*28 _0009_
*29 _0010_
*30 _0011_
*31 _0012_
*32 _0013_
*33 _0014_
*34 _0015_
*35 _0016_
*36 _0017_
*37 _0018_
*38 _0019_
*39 _0020_
*40 _0021_
*41 _0022_
*42 _0023_
*43 _0024_
*44 _0025_
*45 _0026_
*46 _0027_
*47 _0028_
*48 _0029_
*49 _0030_
*50 _0031_
*51 _0032_
*52 _0033_
*53 _0034_
*54 _0035_
*55 _0036_
*56 _0037_
*57 _0038_
*58 _0039_
*59 _0040_
*60 _0041_
*61 _0042_
*62 _0043_
*63 _0044_
*64 _0045_
*65 _0046_
*66 _0047_
*67 _0048_
*68 _0049_
*69 _0050_
*70 _0051_
*71 _0052_
*72 _0053_
*73 _0054_
*74 _0055_
*75 _0056_
*76 _0057_
*77 _0058_
*78 _0059_
*79 _0060_
*80 _0061_
*81 _0062_
*82 _0063_
*83 _0064_
*84 _0065_
*85 _0066_
*86 _0067_
*87 _0068_
*88 _0069_
*89 _0070_
*90 _0071_
*91 _0072_
*92 _0073_
*93 _0074_
*94 _0075_
*95 _0076_
*96 _0077_
*97 _0078_
*98 _0079_
*99 _0080_
*100 _0081_
*101 _0082_
*102 _0083_
*103 _0084_
*104 _0085_
*105 _0086_
*106 _0087_
*107 _0088_
*108 _0089_
*109 _0090_
*110 _0091_
*111 _0092_
*112 _0093_
*113 _0094_
*114 _0095_
*115 _0096_
*116 _0097_
*117 _0098_
*118 _0099_
*119 _0100_
*120 _0101_
*121 _0102_
*122 _0103_
*123 _0104_
*124 _0105_
*125 _0106_
*126 _0107_
*127 _0108_
*128 _0109_
*129 _0110_
*130 _0111_
*131 _0112_
*132 _0113_
*133 _0114_
*134 _0115_
*135 _0116_
*136 _0117_
*137 _0118_
*138 _0119_
*139 _0120_
*140 _0121_
*141 _0122_
*142 _0123_
*143 _0124_
*144 _0125_
*145 _0126_
*146 _0127_
*147 _0128_
*148 _0129_
*149 _0130_
*150 _0131_
*151 _0132_
*152 _0133_
*153 _0134_
*154 _0135_
*155 _0136_
*156 _0137_
*157 _0138_
*158 _0139_
*159 _0140_
*160 _0141_
*161 _0142_
*162 _0143_
*163 _0144_
*164 _0145_
*165 _0146_
*166 _0147_
*167 _0148_
*168 _0149_
*169 _0150_
*170 _0151_
*171 _0152_
*172 _0153_
*173 _0154_
*174 _0155_
*175 _0156_
*176 _0157_
*177 _0158_
*178 _0159_
*179 _0160_
*180 _0161_
*181 _0162_
*182 _0163_
*183 _0164_
*184 _0165_
*185 _0166_
*186 _0167_
*187 _0168_
*188 _0169_
*189 _0170_
*190 _0171_
*191 _0172_
*192 _0173_
*193 _0174_
*194 _0175_
*195 _0176_
*196 _0177_
*197 _0178_
*198 _0179_
*199 _0180_
*200 _0181_
*201 _0182_
*202 _0183_
*203 _0184_
*204 _0185_
*205 _0186_
*206 _0187_
*207 _0188_
*208 _0189_
*209 _0190_
*210 _0191_
*211 _0192_
*212 _0193_
*213 _0194_
*214 _0195_
*215 _0196_
*216 _0197_
*217 _0198_
*218 _0199_
*219 _0200_
*220 _0201_
*221 _0202_
*222 _0203_
*223 _0204_
*224 _0205_
*225 _0206_
*226 _0207_
*227 _0208_
*228 _0209_
*229 _0210_
*230 _0211_
*231 _0212_
*232 _0213_
*233 _0214_
*234 _0215_
*235 _0216_
*236 _0217_
*237 _0218_
*238 _0219_
*239 _0220_
*240 _0221_
*241 _0222_
*242 _0223_
*243 _0224_
*244 _0225_
*245 _0226_
*246 _0227_
*247 _0228_
*248 _0229_
*249 _0230_
*250 _0231_
*251 _0232_
*252 _0233_
*253 _0234_
*254 _0235_
*255 _0236_
*256 _0237_
*257 _0238_
*258 _0239_
*259 _0240_
*260 _0241_
*261 _0242_
*262 _0243_
*263 _0244_
*264 _0245_
*265 _0246_
*266 _0247_
*267 _0248_
*268 _0249_
*269 _0250_
*270 _0251_
*271 _0252_
*272 _0253_
*273 _0254_
*274 _0255_
*275 _0256_
*276 _0257_
*277 _0258_
*278 _0259_
*279 _0260_
*280 _0261_
*281 _0262_
*282 _0263_
*283 _0264_
*284 _0265_
*285 _0266_
*286 _0267_
*287 _0268_
*288 _0269_
*289 _0270_
*290 _0271_
*291 _0272_
*292 _0273_
*293 _0274_
*294 _0275_
*295 _0276_
*296 _0277_
*297 _0278_
*298 _0279_
*299 _0280_
*300 _0281_
*301 _0282_
*302 _0283_
*303 _0284_
*304 _0285_
*305 _0286_
*306 _0287_
*307 _0288_
*308 _0289_
*309 _0290_
*310 _0291_
*311 _0292_
*312 _0293_
*313 _0294_
*314 _0295_
*315 _0296_
*316 _0297_
*317 _0298_
*318 _0299_
*319 _0300_
*320 _0301_
*321 _0302_
*322 _0303_
*323 _0304_
*324 _0305_
*325 _0306_
*326 _0307_
*327 _0308_
*328 _0309_
*329 _0310_
*330 _0311_
*331 _0312_
*332 _0313_
*333 _0314_
*334 _0315_
*335 _0316_
*336 _0317_
*337 _0318_
*338 _0319_
*339 _0320_
*340 _0321_
*341 _0322_
*342 _0323_
*343 _0324_
*344 _0325_
*345 _0326_
*346 _0327_
*347 _0328_
*348 _0329_
*349 _0330_
*350 _0331_
*351 _0332_
*352 _0333_
*353 _0334_
*354 _0335_
*355 _0336_
*356 _0337_
*357 _0338_
*358 _0339_
*359 _0340_
*360 _0341_
*361 _0342_
*362 _0343_
*363 _0344_
*364 _0345_
*365 _0346_
*366 _0347_
*367 _0348_
*368 _0349_
*369 _0350_
*370 _0351_
*371 _0352_
*372 _0353_
*373 _0354_
*374 _0355_
*375 _0356_
*376 _0357_
*377 _0358_
*378 _0359_
*379 _0360_
*380 _0361_
*381 _0362_
*382 _0363_
*383 _0364_
*384 _0365_
*385 _0366_
*386 _0367_
*387 _0368_
*388 _0369_
*389 _0370_
*390 _0371_
*391 _0372_
*392 _0373_
*393 _0374_
*394 _0375_
*395 _0376_
*396 _0377_
*397 _0378_
*398 _0379_
*399 _0380_
*400 _0381_
*401 _0382_
*402 _0383_
*403 _0384_
*404 _0385_
*405 _0386_
*406 _0387_
*407 _0388_
*408 _0389_
*409 _0390_
*410 _0391_
*411 _0392_
*412 _0393_
*413 _0394_
*414 _0395_
*415 _0396_
*416 _0397_
*417 _0398_
*418 _0399_
*419 _0400_
*420 _0401_
*421 _0402_
*422 _0403_
*423 _0404_
*424 _0405_
*425 _0406_
*426 _0407_
*427 _0408_
*428 _0409_
*429 _0410_
*430 _0411_
*431 _0412_
*432 _0413_
*433 _0414_
*434 _0415_
*435 _0416_
*436 _0417_
*437 _0418_
*438 _0419_
*439 _0420_
*440 _0421_
*441 _0422_
*442 _0423_
*443 _0424_
*444 _0425_
*445 _0426_
*446 _0427_
*447 _0428_
*448 _0429_
*449 _0430_
*450 _0431_
*451 _0432_
*452 _0433_
*453 _0434_
*454 _0435_
*455 _0436_
*456 _0437_
*457 _0438_
*458 _0439_
*459 _0440_
*460 _0441_
*461 _0442_
*462 _0443_
*463 _0444_
*464 _0445_
*465 _0446_
*466 _0447_
*467 _0448_
*468 _0449_
*469 _0450_
*470 _0451_
*471 _0452_
*472 _0453_
*473 _0454_
*474 _0455_
*475 _0456_
*476 _0457_
*477 _0458_
*478 _0459_
*479 _0460_
*480 _0461_
*481 _0462_
*482 _0463_
*483 _0464_
*484 _0465_
*485 _0466_
*486 _0467_
*487 _0468_
*488 _0469_
*489 _0470_
*490 _0471_
*491 _0472_
*492 _0473_
*493 _0474_
*494 _0475_
*495 _0476_
*496 _0477_
*497 _0478_
*498 _0479_
*499 _0480_
*500 _0481_
*501 _0482_
*502 _0483_
*503 _0484_
*504 _0485_
*505 _0486_
*506 _0487_
*507 _0488_
*508 _0489_
*509 _0490_
*510 _0491_
*511 _0492_
*512 _0493_
*513 _0494_
*514 _0495_
*515 _0496_
*516 _0497_
*517 _0498_
*518 _0499_
*519 _0500_
*520 _0501_
*521 _0502_
*522 _0503_
*523 _0504_
*524 _0505_
*525 _0506_
*526 _0507_
*527 _0508_
*528 _0509_
*529 _0510_
*530 _0511_
*531 _0512_
*532 _0513_
*533 _0514_
*534 _0515_
*535 _0516_
*536 _0517_
*537 _0518_
*538 _0519_
*539 _0520_
*540 _0521_
*541 _0522_
*542 _0523_
*543 _0524_
*544 _0525_
*545 _0526_
*546 _0527_
*547 _0528_
*548 _0529_
*549 _0530_
*550 _0531_
*551 _0532_
*552 _0533_
*553 _0534_
*554 _0535_
*555 _0536_
*556 _0537_
*557 _0538_
*558 _0539_
*559 _0540_
*560 _0541_
*561 _0542_
*562 _0543_
*563 _0544_
*564 _0545_
*565 _0546_
*566 _0547_
*567 _0548_
*568 _0549_
*569 _0550_
*570 _0551_
*571 _0552_
*572 _0553_
*573 _0554_
*574 _0555_
*575 _0556_
*576 _0557_
*577 _0558_
*578 _0559_
*579 _0560_
*580 _0561_
*581 _0562_
*582 _0563_
*583 _0564_
*584 _0565_
*585 _0566_
*586 _0567_
*587 _0568_
*588 _0569_
*589 _0570_
*590 _0571_
*591 _0572_
*592 _0573_
*593 _0574_
*594 _0575_
*595 _0576_
*596 _0577_
*597 _0578_
*598 _0579_
*599 _0580_
*600 _0581_
*601 _0582_
*602 _0583_
*603 _0584_
*604 _0585_
*605 _0586_
*606 _0587_
*607 _0588_
*608 _0589_
*609 _0590_
*610 _0591_
*611 _0592_
*612 _0593_
*613 _0594_
*614 _0595_
*615 _0596_
*616 _0597_
*617 _0598_
*618 _0599_
*619 _0600_
*620 _0601_
*621 _0602_
*622 _0603_
*623 _0604_
*624 _0605_
*625 _0606_
*626 _0607_
*627 _0608_
*628 _0609_
*629 _0610_
*630 _0611_
*631 _0612_
*632 _0613_
*633 _0614_
*634 _0615_
*635 _0616_
*636 _0617_
*637 _0618_
*638 _0619_
*639 _0620_
*640 _0621_
*641 _0622_
*642 _0623_
*643 _0624_
*644 _0625_
*645 _0626_
*646 _0627_
*647 _0628_
*648 _0629_
*649 _0630_
*650 _0631_
*651 _0632_
*652 _0633_
*653 _0634_
*654 _0635_
*655 _0636_
*656 _0637_
*657 _0638_
*658 _0639_
*659 _0640_
*660 _0641_
*661 _0642_
*662 _0643_
*663 _0644_
*664 _0645_
*665 _0646_
*666 _0647_
*667 _0648_
*668 _0649_
*669 _0650_
*670 _0651_
*671 _0652_
*672 _0653_
*673 _0654_
*674 _0655_
*675 _0656_
*676 _0657_
*677 _0658_
*678 _0659_
*679 _0660_
*680 _0661_
*681 _0662_
*682 _0663_
*683 _0664_
*684 _0665_
*685 _0666_
*686 _0667_
*687 _0668_
*688 _0669_
*689 _0670_
*690 _0671_
*691 _0672_
*692 _0673_
*693 _0674_
*694 _0675_
*695 _0676_
*696 _0677_
*697 _0678_
*698 _0679_
*699 _0680_
*700 _0681_
*701 _0682_
*702 _0683_
*703 _0684_
*704 _0685_
*705 _0686_
*706 _0687_
*707 _0688_
*708 _0689_
*709 _0690_
*710 _0691_
*711 _0692_
*712 _0693_
*713 _0694_
*714 _0695_
*715 _0696_
*716 _0697_
*717 _0698_
*718 _0699_
*719 _0700_
*720 _0701_
*721 _0702_
*722 _0703_
*723 _0704_
*724 _0705_
*725 _0706_
*726 _0707_
*727 _0708_
*728 _0709_
*729 _0710_
*730 _0711_
*731 _0712_
*732 _0713_
*733 _0714_
*734 _0715_
*735 _0716_
*736 _0717_
*737 _0718_
*738 _0719_
*739 _0720_
*740 _0721_
*741 _0722_
*742 _0723_
*743 _0724_
*744 _0725_
*745 _0726_
*746 _0727_
*747 _0728_
*748 _0729_
*749 _0730_
*750 _0731_
*751 _0732_
*752 _0733_
*753 _0734_
*754 _0735_
*755 _0736_
*756 _0737_
*757 _0738_
*758 _0739_
*759 _0740_
*760 _0741_
*761 _0742_
*762 _0743_
*763 _0744_
*764 _0745_
*765 _0746_
*766 _0747_
*767 _0748_
*768 _0749_
*769 _0750_
*770 _0751_
*771 _0752_
*772 _0753_
*773 _0754_
*774 _0755_
*775 _0756_
*776 _0757_
*777 _0758_
*778 _0759_
*779 _0760_
*780 _0761_
*781 _0762_
*782 _0763_
*783 _0764_
*784 _0765_
*785 _0766_
*786 _0767_
*787 _0768_
*788 _0769_
*789 _0770_
*790 _0771_
*791 _0772_
*792 _0773_
*793 _0774_
*794 _0775_
*795 _0776_
*796 _0777_
*797 _0778_
*798 _0779_
*799 _0780_
*800 _0781_
*801 _0782_
*802 _0783_
*803 _0784_
*804 _0785_
*805 _0786_
*806 _0787_
*807 _0788_
*808 _0789_
*809 _0790_
*810 _0791_
*811 _0792_
*812 _0793_
*813 _0794_
*814 _0795_
*815 _0796_
*816 _0797_
*817 _0798_
*818 _0799_
*819 _0800_
*820 _0801_
*821 _0802_
*822 _0803_
*823 _0804_
*824 _0805_
*825 _0806_
*826 _0807_
*827 _0808_
*828 _0809_
*829 _0810_
*830 _0811_
*831 _0812_
*832 _0813_
*833 _0814_
*834 _0815_
*835 _0816_
*836 _0817_
*837 _0818_
*838 _0819_
*839 _0820_
*840 _0821_
*841 _0822_
*842 _0823_
*843 _0824_
*844 _0825_
*845 _0826_
*846 _0827_
*847 _0828_
*848 _0829_
*849 _0830_
*850 _0831_
*851 _0832_
*852 _0833_
*853 _0834_
*854 _0835_
*855 _0836_
*856 _0837_
*857 _0838_
*858 _0839_
*859 _0840_
*860 _0841_
*861 _0842_
*862 _0843_
*863 _0844_
*864 _0845_
*865 _0846_
*866 _0847_
*867 _0848_
*868 _0849_
*869 _0850_
*870 _0851_
*871 _0852_
*872 _0853_
*873 _0854_
*874 _0855_
*875 _0856_
*876 _0857_
*877 _0858_
*878 _0859_
*879 _0860_
*880 _0861_
*881 _0862_
*882 _0863_
*883 _0864_
*884 _0865_
*885 _0866_
*886 _0867_
*887 _0868_
*888 _0869_
*889 _0870_
*890 _0871_
*891 _0872_
*892 _0873_
*893 _0874_
*894 _0875_
*895 _0876_
*896 _0877_
*897 _0878_
*898 _0879_
*899 _0880_
*900 _0881_
*901 _0882_
*902 _0883_
*903 _0884_
*904 _0885_
*905 _0886_
*906 _0887_
*907 _0888_
*908 _0889_
*909 _0890_
*910 _0891_
*911 _0892_
*912 _0893_
*913 _0894_
*914 _0895_
*915 _0896_
*916 _0897_
*917 _0898_
*918 _0899_
*919 _0900_
*920 _0901_
*921 _0902_
*922 _0903_
*923 _0904_
*924 _0905_
*925 _0906_
*926 clknet_0_io_in[0]
*927 clknet_1_0__leaf_io_in[0]
*928 clknet_1_1__leaf_io_in[0]
*929 index\[0\]
*930 index\[1\]
*931 index\[2\]
*932 index\[3\]
*933 index\[4\]
*934 index\[5\]
*935 index\[6\]
*936 index\[7\]
*937 index\[8\]
*938 ANTENNA_0
*939 ANTENNA_1
*940 ANTENNA_10
*941 ANTENNA_11
*942 ANTENNA_12
*943 ANTENNA_13
*944 ANTENNA_14
*945 ANTENNA_2
*946 ANTENNA_3
*947 ANTENNA_4
*948 ANTENNA_5
*949 ANTENNA_6
*950 ANTENNA_7
*951 ANTENNA_8
*952 ANTENNA_9
*953 FILLER_0_104
*954 FILLER_0_116
*955 FILLER_0_123
*956 FILLER_0_130
*957 FILLER_0_138
*958 FILLER_0_144
*959 FILLER_0_151
*960 FILLER_0_158
*961 FILLER_0_16
*962 FILLER_0_166
*963 FILLER_0_169
*964 FILLER_0_181
*965 FILLER_0_193
*966 FILLER_0_197
*967 FILLER_0_209
*968 FILLER_0_221
*969 FILLER_0_225
*970 FILLER_0_237
*971 FILLER_0_24
*972 FILLER_0_249
*973 FILLER_0_253
*974 FILLER_0_265
*975 FILLER_0_277
*976 FILLER_0_281
*977 FILLER_0_293
*978 FILLER_0_3
*979 FILLER_0_45
*980 FILLER_0_52
*981 FILLER_0_57
*982 FILLER_0_70
*983 FILLER_0_78
*984 FILLER_0_8
*985 FILLER_0_93
*986 FILLER_10_105
*987 FILLER_10_113
*988 FILLER_10_120
*989 FILLER_10_124
*990 FILLER_10_128
*991 FILLER_10_136
*992 FILLER_10_141
*993 FILLER_10_149
*994 FILLER_10_160
*995 FILLER_10_171
*996 FILLER_10_182
*997 FILLER_10_189
*998 FILLER_10_195
*999 FILLER_10_197
*1000 FILLER_10_205
*1001 FILLER_10_213
*1002 FILLER_10_225
*1003 FILLER_10_237
*1004 FILLER_10_24
*1005 FILLER_10_249
*1006 FILLER_10_253
*1007 FILLER_10_265
*1008 FILLER_10_277
*1009 FILLER_10_289
*1010 FILLER_10_297
*1011 FILLER_10_3
*1012 FILLER_10_39
*1013 FILLER_10_50
*1014 FILLER_10_62
*1015 FILLER_10_71
*1016 FILLER_10_75
*1017 FILLER_10_8
*1018 FILLER_10_80
*1019 FILLER_10_85
*1020 FILLER_10_89
*1021 FILLER_10_99
*1022 FILLER_11_10
*1023 FILLER_11_108
*1024 FILLER_11_122
*1025 FILLER_11_126
*1026 FILLER_11_131
*1027 FILLER_11_135
*1028 FILLER_11_140
*1029 FILLER_11_148
*1030 FILLER_11_162
*1031 FILLER_11_173
*1032 FILLER_11_180
*1033 FILLER_11_186
*1034 FILLER_11_194
*1035 FILLER_11_206
*1036 FILLER_11_218
*1037 FILLER_11_231
*1038 FILLER_11_24
*1039 FILLER_11_243
*1040 FILLER_11_255
*1041 FILLER_11_267
*1042 FILLER_11_279
*1043 FILLER_11_281
*1044 FILLER_11_293
*1045 FILLER_11_3
*1046 FILLER_11_38
*1047 FILLER_11_49
*1048 FILLER_11_55
*1049 FILLER_11_67
*1050 FILLER_11_76
*1051 FILLER_11_80
*1052 FILLER_11_88
*1053 FILLER_11_96
*1054 FILLER_12_10
*1055 FILLER_12_101
*1056 FILLER_12_109
*1057 FILLER_12_117
*1058 FILLER_12_126
*1059 FILLER_12_136
*1060 FILLER_12_147
*1061 FILLER_12_155
*1062 FILLER_12_164
*1063 FILLER_12_172
*1064 FILLER_12_176
*1065 FILLER_12_181
*1066 FILLER_12_192
*1067 FILLER_12_197
*1068 FILLER_12_202
*1069 FILLER_12_210
*1070 FILLER_12_234
*1071 FILLER_12_24
*1072 FILLER_12_246
*1073 FILLER_12_253
*1074 FILLER_12_265
*1075 FILLER_12_277
*1076 FILLER_12_289
*1077 FILLER_12_297
*1078 FILLER_12_39
*1079 FILLER_12_52
*1080 FILLER_12_60
*1081 FILLER_12_67
*1082 FILLER_12_80
*1083 FILLER_12_92
*1084 FILLER_12_96
*1085 FILLER_13_107
*1086 FILLER_13_111
*1087 FILLER_13_118
*1088 FILLER_13_125
*1089 FILLER_13_133
*1090 FILLER_13_140
*1091 FILLER_13_150
*1092 FILLER_13_160
*1093 FILLER_13_175
*1094 FILLER_13_181
*1095 FILLER_13_19
*1096 FILLER_13_192
*1097 FILLER_13_204
*1098 FILLER_13_213
*1099 FILLER_13_221
*1100 FILLER_13_225
*1101 FILLER_13_243
*1102 FILLER_13_255
*1103 FILLER_13_267
*1104 FILLER_13_279
*1105 FILLER_13_281
*1106 FILLER_13_293
*1107 FILLER_13_30
*1108 FILLER_13_34
*1109 FILLER_13_45
*1110 FILLER_13_52
*1111 FILLER_13_57
*1112 FILLER_13_62
*1113 FILLER_13_70
*1114 FILLER_13_74
*1115 FILLER_13_82
*1116 FILLER_13_93
*1117 FILLER_14_108
*1118 FILLER_14_117
*1119 FILLER_14_130
*1120 FILLER_14_138
*1121 FILLER_14_144
*1122 FILLER_14_156
*1123 FILLER_14_162
*1124 FILLER_14_172
*1125 FILLER_14_185
*1126 FILLER_14_19
*1127 FILLER_14_193
*1128 FILLER_14_197
*1129 FILLER_14_207
*1130 FILLER_14_219
*1131 FILLER_14_231
*1132 FILLER_14_243
*1133 FILLER_14_251
*1134 FILLER_14_253
*1135 FILLER_14_265
*1136 FILLER_14_27
*1137 FILLER_14_277
*1138 FILLER_14_289
*1139 FILLER_14_297
*1140 FILLER_14_37
*1141 FILLER_14_49
*1142 FILLER_14_60
*1143 FILLER_14_69
*1144 FILLER_14_75
*1145 FILLER_14_80
*1146 FILLER_14_95
*1147 FILLER_15_10
*1148 FILLER_15_108
*1149 FILLER_15_118
*1150 FILLER_15_125
*1151 FILLER_15_134
*1152 FILLER_15_142
*1153 FILLER_15_148
*1154 FILLER_15_154
*1155 FILLER_15_158
*1156 FILLER_15_166
*1157 FILLER_15_177
*1158 FILLER_15_192
*1159 FILLER_15_203
*1160 FILLER_15_220
*1161 FILLER_15_225
*1162 FILLER_15_233
*1163 FILLER_15_24
*1164 FILLER_15_245
*1165 FILLER_15_257
*1166 FILLER_15_269
*1167 FILLER_15_277
*1168 FILLER_15_281
*1169 FILLER_15_293
*1170 FILLER_15_3
*1171 FILLER_15_32
*1172 FILLER_15_43
*1173 FILLER_15_51
*1174 FILLER_15_55
*1175 FILLER_15_63
*1176 FILLER_15_76
*1177 FILLER_15_85
*1178 FILLER_15_96
*1179 FILLER_16_104
*1180 FILLER_16_112
*1181 FILLER_16_119
*1182 FILLER_16_127
*1183 FILLER_16_136
*1184 FILLER_16_141
*1185 FILLER_16_146
*1186 FILLER_16_153
*1187 FILLER_16_160
*1188 FILLER_16_167
*1189 FILLER_16_171
*1190 FILLER_16_176
*1191 FILLER_16_184
*1192 FILLER_16_190
*1193 FILLER_16_197
*1194 FILLER_16_206
*1195 FILLER_16_213
*1196 FILLER_16_23
*1197 FILLER_16_233
*1198 FILLER_16_245
*1199 FILLER_16_251
*1200 FILLER_16_253
*1201 FILLER_16_265
*1202 FILLER_16_27
*1203 FILLER_16_277
*1204 FILLER_16_289
*1205 FILLER_16_297
*1206 FILLER_16_33
*1207 FILLER_16_37
*1208 FILLER_16_48
*1209 FILLER_16_61
*1210 FILLER_16_69
*1211 FILLER_16_7
*1212 FILLER_16_79
*1213 FILLER_16_83
*1214 FILLER_16_85
*1215 FILLER_16_90
*1216 FILLER_17_108
*1217 FILLER_17_11
*1218 FILLER_17_118
*1219 FILLER_17_126
*1220 FILLER_17_132
*1221 FILLER_17_140
*1222 FILLER_17_148
*1223 FILLER_17_15
*1224 FILLER_17_157
*1225 FILLER_17_165
*1226 FILLER_17_169
*1227 FILLER_17_181
*1228 FILLER_17_185
*1229 FILLER_17_189
*1230 FILLER_17_201
*1231 FILLER_17_209
*1232 FILLER_17_220
*1233 FILLER_17_234
*1234 FILLER_17_238
*1235 FILLER_17_245
*1236 FILLER_17_257
*1237 FILLER_17_269
*1238 FILLER_17_277
*1239 FILLER_17_281
*1240 FILLER_17_293
*1241 FILLER_17_3
*1242 FILLER_17_36
*1243 FILLER_17_50
*1244 FILLER_17_57
*1245 FILLER_17_71
*1246 FILLER_17_75
*1247 FILLER_17_86
*1248 FILLER_17_99
*1249 FILLER_18_10
*1250 FILLER_18_102
*1251 FILLER_18_111
*1252 FILLER_18_119
*1253 FILLER_18_129
*1254 FILLER_18_136
*1255 FILLER_18_146
*1256 FILLER_18_150
*1257 FILLER_18_159
*1258 FILLER_18_166
*1259 FILLER_18_175
*1260 FILLER_18_183
*1261 FILLER_18_188
*1262 FILLER_18_197
*1263 FILLER_18_201
*1264 FILLER_18_209
*1265 FILLER_18_217
*1266 FILLER_18_229
*1267 FILLER_18_24
*1268 FILLER_18_241
*1269 FILLER_18_249
*1270 FILLER_18_253
*1271 FILLER_18_265
*1272 FILLER_18_277
*1273 FILLER_18_289
*1274 FILLER_18_297
*1275 FILLER_18_3
*1276 FILLER_18_37
*1277 FILLER_18_49
*1278 FILLER_18_57
*1279 FILLER_18_63
*1280 FILLER_18_68
*1281 FILLER_18_80
*1282 FILLER_18_95
*1283 FILLER_19_103
*1284 FILLER_19_111
*1285 FILLER_19_113
*1286 FILLER_19_121
*1287 FILLER_19_127
*1288 FILLER_19_131
*1289 FILLER_19_138
*1290 FILLER_19_146
*1291 FILLER_19_15
*1292 FILLER_19_154
*1293 FILLER_19_160
*1294 FILLER_19_172
*1295 FILLER_19_176
*1296 FILLER_19_186
*1297 FILLER_19_194
*1298 FILLER_19_200
*1299 FILLER_19_206
*1300 FILLER_19_215
*1301 FILLER_19_223
*1302 FILLER_19_225
*1303 FILLER_19_233
*1304 FILLER_19_242
*1305 FILLER_19_254
*1306 FILLER_19_266
*1307 FILLER_19_278
*1308 FILLER_19_281
*1309 FILLER_19_293
*1310 FILLER_19_3
*1311 FILLER_19_31
*1312 FILLER_19_47
*1313 FILLER_19_55
*1314 FILLER_19_57
*1315 FILLER_19_65
*1316 FILLER_19_72
*1317 FILLER_19_79
*1318 FILLER_19_86
*1319 FILLER_19_95
*1320 FILLER_1_104
*1321 FILLER_1_120
*1322 FILLER_1_127
*1323 FILLER_1_134
*1324 FILLER_1_141
*1325 FILLER_1_148
*1326 FILLER_1_155
*1327 FILLER_1_16
*1328 FILLER_1_162
*1329 FILLER_1_169
*1330 FILLER_1_181
*1331 FILLER_1_193
*1332 FILLER_1_205
*1333 FILLER_1_217
*1334 FILLER_1_223
*1335 FILLER_1_225
*1336 FILLER_1_237
*1337 FILLER_1_249
*1338 FILLER_1_261
*1339 FILLER_1_273
*1340 FILLER_1_279
*1341 FILLER_1_281
*1342 FILLER_1_293
*1343 FILLER_1_3
*1344 FILLER_1_36
*1345 FILLER_1_52
*1346 FILLER_1_76
*1347 FILLER_1_8
*1348 FILLER_1_92
*1349 FILLER_20_109
*1350 FILLER_20_117
*1351 FILLER_20_121
*1352 FILLER_20_125
*1353 FILLER_20_136
*1354 FILLER_20_148
*1355 FILLER_20_155
*1356 FILLER_20_163
*1357 FILLER_20_174
*1358 FILLER_20_182
*1359 FILLER_20_19
*1360 FILLER_20_191
*1361 FILLER_20_195
*1362 FILLER_20_200
*1363 FILLER_20_206
*1364 FILLER_20_215
*1365 FILLER_20_227
*1366 FILLER_20_235
*1367 FILLER_20_246
*1368 FILLER_20_253
*1369 FILLER_20_265
*1370 FILLER_20_27
*1371 FILLER_20_277
*1372 FILLER_20_289
*1373 FILLER_20_297
*1374 FILLER_20_38
*1375 FILLER_20_49
*1376 FILLER_20_57
*1377 FILLER_20_67
*1378 FILLER_20_79
*1379 FILLER_20_83
*1380 FILLER_20_85
*1381 FILLER_20_89
*1382 FILLER_20_98
*1383 FILLER_21_10
*1384 FILLER_21_103
*1385 FILLER_21_108
*1386 FILLER_21_113
*1387 FILLER_21_120
*1388 FILLER_21_124
*1389 FILLER_21_134
*1390 FILLER_21_147
*1391 FILLER_21_153
*1392 FILLER_21_159
*1393 FILLER_21_167
*1394 FILLER_21_169
*1395 FILLER_21_18
*1396 FILLER_21_181
*1397 FILLER_21_193
*1398 FILLER_21_199
*1399 FILLER_21_205
*1400 FILLER_21_213
*1401 FILLER_21_220
*1402 FILLER_21_229
*1403 FILLER_21_241
*1404 FILLER_21_250
*1405 FILLER_21_262
*1406 FILLER_21_274
*1407 FILLER_21_281
*1408 FILLER_21_293
*1409 FILLER_21_36
*1410 FILLER_21_45
*1411 FILLER_21_52
*1412 FILLER_21_57
*1413 FILLER_21_62
*1414 FILLER_21_71
*1415 FILLER_21_85
*1416 FILLER_21_99
*1417 FILLER_22_101
*1418 FILLER_22_105
*1419 FILLER_22_113
*1420 FILLER_22_117
*1421 FILLER_22_124
*1422 FILLER_22_131
*1423 FILLER_22_139
*1424 FILLER_22_141
*1425 FILLER_22_147
*1426 FILLER_22_155
*1427 FILLER_22_163
*1428 FILLER_22_171
*1429 FILLER_22_176
*1430 FILLER_22_190
*1431 FILLER_22_200
*1432 FILLER_22_21
*1433 FILLER_22_213
*1434 FILLER_22_221
*1435 FILLER_22_230
*1436 FILLER_22_242
*1437 FILLER_22_247
*1438 FILLER_22_251
*1439 FILLER_22_253
*1440 FILLER_22_265
*1441 FILLER_22_27
*1442 FILLER_22_277
*1443 FILLER_22_289
*1444 FILLER_22_297
*1445 FILLER_22_3
*1446 FILLER_22_37
*1447 FILLER_22_43
*1448 FILLER_22_50
*1449 FILLER_22_61
*1450 FILLER_22_67
*1451 FILLER_22_72
*1452 FILLER_22_80
*1453 FILLER_22_85
*1454 FILLER_22_9
*1455 FILLER_22_93
*1456 FILLER_23_10
*1457 FILLER_23_103
*1458 FILLER_23_111
*1459 FILLER_23_116
*1460 FILLER_23_128
*1461 FILLER_23_133
*1462 FILLER_23_139
*1463 FILLER_23_148
*1464 FILLER_23_160
*1465 FILLER_23_169
*1466 FILLER_23_180
*1467 FILLER_23_189
*1468 FILLER_23_193
*1469 FILLER_23_202
*1470 FILLER_23_206
*1471 FILLER_23_210
*1472 FILLER_23_220
*1473 FILLER_23_225
*1474 FILLER_23_237
*1475 FILLER_23_251
*1476 FILLER_23_263
*1477 FILLER_23_275
*1478 FILLER_23_279
*1479 FILLER_23_281
*1480 FILLER_23_293
*1481 FILLER_23_3
*1482 FILLER_23_33
*1483 FILLER_23_47
*1484 FILLER_23_55
*1485 FILLER_23_64
*1486 FILLER_23_73
*1487 FILLER_23_80
*1488 FILLER_23_94
*1489 FILLER_24_100
*1490 FILLER_24_113
*1491 FILLER_24_123
*1492 FILLER_24_132
*1493 FILLER_24_144
*1494 FILLER_24_160
*1495 FILLER_24_172
*1496 FILLER_24_184
*1497 FILLER_24_19
*1498 FILLER_24_197
*1499 FILLER_24_207
*1500 FILLER_24_219
*1501 FILLER_24_227
*1502 FILLER_24_236
*1503 FILLER_24_248
*1504 FILLER_24_253
*1505 FILLER_24_265
*1506 FILLER_24_27
*1507 FILLER_24_277
*1508 FILLER_24_289
*1509 FILLER_24_297
*1510 FILLER_24_36
*1511 FILLER_24_47
*1512 FILLER_24_56
*1513 FILLER_24_63
*1514 FILLER_24_75
*1515 FILLER_24_83
*1516 FILLER_24_88
*1517 FILLER_25_111
*1518 FILLER_25_116
*1519 FILLER_25_124
*1520 FILLER_25_13
*1521 FILLER_25_131
*1522 FILLER_25_138
*1523 FILLER_25_150
*1524 FILLER_25_162
*1525 FILLER_25_169
*1526 FILLER_25_181
*1527 FILLER_25_191
*1528 FILLER_25_195
*1529 FILLER_25_199
*1530 FILLER_25_205
*1531 FILLER_25_209
*1532 FILLER_25_221
*1533 FILLER_25_231
*1534 FILLER_25_243
*1535 FILLER_25_248
*1536 FILLER_25_255
*1537 FILLER_25_267
*1538 FILLER_25_279
*1539 FILLER_25_281
*1540 FILLER_25_293
*1541 FILLER_25_3
*1542 FILLER_25_37
*1543 FILLER_25_46
*1544 FILLER_25_54
*1545 FILLER_25_60
*1546 FILLER_25_67
*1547 FILLER_25_75
*1548 FILLER_25_81
*1549 FILLER_25_85
*1550 FILLER_25_90
*1551 FILLER_25_99
*1552 FILLER_26_104
*1553 FILLER_26_116
*1554 FILLER_26_120
*1555 FILLER_26_124
*1556 FILLER_26_128
*1557 FILLER_26_141
*1558 FILLER_26_151
*1559 FILLER_26_162
*1560 FILLER_26_173
*1561 FILLER_26_181
*1562 FILLER_26_192
*1563 FILLER_26_197
*1564 FILLER_26_20
*1565 FILLER_26_209
*1566 FILLER_26_221
*1567 FILLER_26_236
*1568 FILLER_26_248
*1569 FILLER_26_253
*1570 FILLER_26_265
*1571 FILLER_26_277
*1572 FILLER_26_289
*1573 FILLER_26_29
*1574 FILLER_26_297
*1575 FILLER_26_3
*1576 FILLER_26_37
*1577 FILLER_26_47
*1578 FILLER_26_55
*1579 FILLER_26_59
*1580 FILLER_26_67
*1581 FILLER_26_75
*1582 FILLER_26_80
*1583 FILLER_26_9
*1584 FILLER_26_92
*1585 FILLER_27_108
*1586 FILLER_27_11
*1587 FILLER_27_113
*1588 FILLER_27_121
*1589 FILLER_27_132
*1590 FILLER_27_138
*1591 FILLER_27_148
*1592 FILLER_27_15
*1593 FILLER_27_156
*1594 FILLER_27_164
*1595 FILLER_27_169
*1596 FILLER_27_179
*1597 FILLER_27_191
*1598 FILLER_27_199
*1599 FILLER_27_206
*1600 FILLER_27_214
*1601 FILLER_27_222
*1602 FILLER_27_225
*1603 FILLER_27_237
*1604 FILLER_27_249
*1605 FILLER_27_261
*1606 FILLER_27_273
*1607 FILLER_27_279
*1608 FILLER_27_281
*1609 FILLER_27_293
*1610 FILLER_27_3
*1611 FILLER_27_36
*1612 FILLER_27_40
*1613 FILLER_27_45
*1614 FILLER_27_52
*1615 FILLER_27_57
*1616 FILLER_27_61
*1617 FILLER_27_69
*1618 FILLER_27_78
*1619 FILLER_27_85
*1620 FILLER_27_97
*1621 FILLER_28_109
*1622 FILLER_28_120
*1623 FILLER_28_128
*1624 FILLER_28_141
*1625 FILLER_28_162
*1626 FILLER_28_170
*1627 FILLER_28_177
*1628 FILLER_28_189
*1629 FILLER_28_195
*1630 FILLER_28_197
*1631 FILLER_28_201
*1632 FILLER_28_209
*1633 FILLER_28_218
*1634 FILLER_28_22
*1635 FILLER_28_226
*1636 FILLER_28_235
*1637 FILLER_28_247
*1638 FILLER_28_251
*1639 FILLER_28_261
*1640 FILLER_28_273
*1641 FILLER_28_285
*1642 FILLER_28_297
*1643 FILLER_28_3
*1644 FILLER_28_32
*1645 FILLER_28_40
*1646 FILLER_28_47
*1647 FILLER_28_55
*1648 FILLER_28_61
*1649 FILLER_28_67
*1650 FILLER_28_72
*1651 FILLER_28_79
*1652 FILLER_28_8
*1653 FILLER_28_83
*1654 FILLER_28_90
*1655 FILLER_28_98
*1656 FILLER_29_103
*1657 FILLER_29_111
*1658 FILLER_29_113
*1659 FILLER_29_120
*1660 FILLER_29_129
*1661 FILLER_29_137
*1662 FILLER_29_147
*1663 FILLER_29_159
*1664 FILLER_29_167
*1665 FILLER_29_169
*1666 FILLER_29_175
*1667 FILLER_29_182
*1668 FILLER_29_19
*1669 FILLER_29_192
*1670 FILLER_29_196
*1671 FILLER_29_203
*1672 FILLER_29_215
*1673 FILLER_29_223
*1674 FILLER_29_233
*1675 FILLER_29_243
*1676 FILLER_29_255
*1677 FILLER_29_267
*1678 FILLER_29_279
*1679 FILLER_29_28
*1680 FILLER_29_281
*1681 FILLER_29_293
*1682 FILLER_29_35
*1683 FILLER_29_39
*1684 FILLER_29_45
*1685 FILLER_29_52
*1686 FILLER_29_57
*1687 FILLER_29_64
*1688 FILLER_29_72
*1689 FILLER_29_84
*1690 FILLER_29_91
*1691 FILLER_2_109
*1692 FILLER_2_118
*1693 FILLER_2_12
*1694 FILLER_2_125
*1695 FILLER_2_132
*1696 FILLER_2_144
*1697 FILLER_2_151
*1698 FILLER_2_163
*1699 FILLER_2_175
*1700 FILLER_2_187
*1701 FILLER_2_195
*1702 FILLER_2_197
*1703 FILLER_2_209
*1704 FILLER_2_221
*1705 FILLER_2_233
*1706 FILLER_2_24
*1707 FILLER_2_245
*1708 FILLER_2_251
*1709 FILLER_2_253
*1710 FILLER_2_265
*1711 FILLER_2_277
*1712 FILLER_2_289
*1713 FILLER_2_297
*1714 FILLER_2_3
*1715 FILLER_2_45
*1716 FILLER_2_53
*1717 FILLER_2_7
*1718 FILLER_2_76
*1719 FILLER_2_95
*1720 FILLER_30_100
*1721 FILLER_30_108
*1722 FILLER_30_113
*1723 FILLER_30_119
*1724 FILLER_30_123
*1725 FILLER_30_134
*1726 FILLER_30_14
*1727 FILLER_30_141
*1728 FILLER_30_147
*1729 FILLER_30_155
*1730 FILLER_30_162
*1731 FILLER_30_174
*1732 FILLER_30_178
*1733 FILLER_30_182
*1734 FILLER_30_19
*1735 FILLER_30_194
*1736 FILLER_30_197
*1737 FILLER_30_209
*1738 FILLER_30_221
*1739 FILLER_30_238
*1740 FILLER_30_250
*1741 FILLER_30_261
*1742 FILLER_30_27
*1743 FILLER_30_273
*1744 FILLER_30_285
*1745 FILLER_30_297
*1746 FILLER_30_3
*1747 FILLER_30_32
*1748 FILLER_30_39
*1749 FILLER_30_49
*1750 FILLER_30_57
*1751 FILLER_30_64
*1752 FILLER_30_68
*1753 FILLER_30_76
*1754 FILLER_30_8
*1755 FILLER_30_90
*1756 FILLER_30_96
*1757 FILLER_31_108
*1758 FILLER_31_113
*1759 FILLER_31_123
*1760 FILLER_31_131
*1761 FILLER_31_138
*1762 FILLER_31_146
*1763 FILLER_31_156
*1764 FILLER_31_175
*1765 FILLER_31_181
*1766 FILLER_31_188
*1767 FILLER_31_20
*1768 FILLER_31_200
*1769 FILLER_31_207
*1770 FILLER_31_216
*1771 FILLER_31_231
*1772 FILLER_31_243
*1773 FILLER_31_251
*1774 FILLER_31_263
*1775 FILLER_31_275
*1776 FILLER_31_279
*1777 FILLER_31_281
*1778 FILLER_31_293
*1779 FILLER_31_31
*1780 FILLER_31_39
*1781 FILLER_31_52
*1782 FILLER_31_57
*1783 FILLER_31_69
*1784 FILLER_31_76
*1785 FILLER_31_89
*1786 FILLER_32_104
*1787 FILLER_32_11
*1788 FILLER_32_110
*1789 FILLER_32_132
*1790 FILLER_32_141
*1791 FILLER_32_153
*1792 FILLER_32_165
*1793 FILLER_32_177
*1794 FILLER_32_189
*1795 FILLER_32_195
*1796 FILLER_32_20
*1797 FILLER_32_203
*1798 FILLER_32_210
*1799 FILLER_32_218
*1800 FILLER_32_222
*1801 FILLER_32_233
*1802 FILLER_32_239
*1803 FILLER_32_248
*1804 FILLER_32_253
*1805 FILLER_32_265
*1806 FILLER_32_277
*1807 FILLER_32_289
*1808 FILLER_32_297
*1809 FILLER_32_3
*1810 FILLER_32_37
*1811 FILLER_32_48
*1812 FILLER_32_62
*1813 FILLER_32_7
*1814 FILLER_32_77
*1815 FILLER_32_83
*1816 FILLER_32_85
*1817 FILLER_32_94
*1818 FILLER_33_104
*1819 FILLER_33_11
*1820 FILLER_33_113
*1821 FILLER_33_125
*1822 FILLER_33_133
*1823 FILLER_33_145
*1824 FILLER_33_152
*1825 FILLER_33_16
*1826 FILLER_33_164
*1827 FILLER_33_175
*1828 FILLER_33_184
*1829 FILLER_33_196
*1830 FILLER_33_20
*1831 FILLER_33_208
*1832 FILLER_33_220
*1833 FILLER_33_231
*1834 FILLER_33_239
*1835 FILLER_33_24
*1836 FILLER_33_246
*1837 FILLER_33_258
*1838 FILLER_33_270
*1839 FILLER_33_278
*1840 FILLER_33_281
*1841 FILLER_33_293
*1842 FILLER_33_3
*1843 FILLER_33_34
*1844 FILLER_33_52
*1845 FILLER_33_65
*1846 FILLER_33_74
*1847 FILLER_33_86
*1848 FILLER_34_106
*1849 FILLER_34_119
*1850 FILLER_34_129
*1851 FILLER_34_137
*1852 FILLER_34_149
*1853 FILLER_34_161
*1854 FILLER_34_169
*1855 FILLER_34_178
*1856 FILLER_34_186
*1857 FILLER_34_192
*1858 FILLER_34_197
*1859 FILLER_34_206
*1860 FILLER_34_218
*1861 FILLER_34_22
*1862 FILLER_34_227
*1863 FILLER_34_239
*1864 FILLER_34_251
*1865 FILLER_34_253
*1866 FILLER_34_265
*1867 FILLER_34_277
*1868 FILLER_34_289
*1869 FILLER_34_297
*1870 FILLER_34_3
*1871 FILLER_34_34
*1872 FILLER_34_42
*1873 FILLER_34_51
*1874 FILLER_34_63
*1875 FILLER_34_74
*1876 FILLER_34_82
*1877 FILLER_34_88
*1878 FILLER_34_92
*1879 FILLER_34_97
*1880 FILLER_35_101
*1881 FILLER_35_108
*1882 FILLER_35_134
*1883 FILLER_35_144
*1884 FILLER_35_150
*1885 FILLER_35_158
*1886 FILLER_35_166
*1887 FILLER_35_175