*SPEF "ieee 1481-1999"
*DESIGN "seven_segment_seconds"
*DATE "11:11:11 Fri 11 11, 1111"
*VENDOR "OpenRCX"
*PROGRAM "Parallel Extraction"
*VERSION "1.0"
*DESIGN_FLOW "NAME_SCOPE LOCAL" "PIN_CAP NONE"
*DIVIDER /
*DELIMITER :
*BUS_DELIMITER []
*T_UNIT 1 NS
*C_UNIT 1 PF
*R_UNIT 1 OHM
*L_UNIT 1 HENRY

*NAME_MAP
*1 io_in[0]
*2 io_in[1]
*3 io_in[2]
*4 io_in[3]
*5 io_in[4]
*6 io_in[5]
*7 io_in[6]
*8 io_in[7]
*9 io_out[0]
*10 io_out[1]
*11 io_out[2]
*12 io_out[3]
*13 io_out[4]
*14 io_out[5]
*15 io_out[6]
*16 net2
*19 _000_
*20 _001_
*21 _002_
*22 _003_
*23 _004_
*24 _005_
*25 _006_
*26 _007_
*27 _008_
*28 _009_
*29 _010_
*30 _011_
*31 _012_
*32 _013_
*33 _014_
*34 _015_
*35 _016_
*36 _017_
*37 _018_
*38 _019_
*39 _020_
*40 _021_
*41 _022_
*42 _023_
*43 _024_
*44 _025_
*45 _026_
*46 _027_
*47 _028_
*48 _029_
*49 _030_
*50 _031_
*51 _032_
*52 _033_
*53 _034_
*54 _035_
*55 _036_
*56 _037_
*57 _038_
*58 _039_
*59 _040_
*60 _041_
*61 _042_
*62 _043_
*63 _044_
*64 _045_
*65 _046_
*66 _047_
*67 _048_
*68 _049_
*69 _050_
*70 _051_
*71 _052_
*72 _053_
*73 _054_
*74 _055_
*75 _056_
*76 _057_
*77 _058_
*78 _059_
*79 _060_
*80 _061_
*81 _062_
*82 _063_
*83 _064_
*84 _065_
*85 _066_
*86 _067_
*87 _068_
*88 _069_
*89 _070_
*90 _071_
*91 _072_
*92 _073_
*93 _074_
*94 _075_
*95 _076_
*96 _077_
*97 clknet_0_io_in[0]
*98 clknet_1_0__leaf_io_in[0]
*99 clknet_1_1__leaf_io_in[0]
*100 net1
*101 second_counter\[0\]
*102 second_counter\[1\]
*103 second_counter\[2\]
*104 second_counter\[3\]
*105 second_counter\[4\]
*106 second_counter\[5\]
*107 second_counter\[6\]
*108 second_counter\[7\]
*109 second_counter\[8\]
*110 second_counter\[9\]
*111 seg7\.counter\[0\]
*112 seg7\.counter\[1\]
*113 seg7\.counter\[2\]
*114 seg7\.counter\[3\]
*115 FILLER_0_109
*116 FILLER_0_113
*117 FILLER_0_125
*118 FILLER_0_137
*119 FILLER_0_141
*120 FILLER_0_153
*121 FILLER_0_165
*122 FILLER_0_169
*123 FILLER_0_181
*124 FILLER_0_193
*125 FILLER_0_197
*126 FILLER_0_209
*127 FILLER_0_221
*128 FILLER_0_225
*129 FILLER_0_237
*130 FILLER_0_24
*131 FILLER_0_249
*132 FILLER_0_253
*133 FILLER_0_265
*134 FILLER_0_277
*135 FILLER_0_281
*136 FILLER_0_293
*137 FILLER_0_3
*138 FILLER_0_45
*139 FILLER_0_53
*140 FILLER_0_57
*141 FILLER_0_69
*142 FILLER_0_81
*143 FILLER_0_85
*144 FILLER_0_97
*145 FILLER_10_105
*146 FILLER_10_118
*147 FILLER_10_126
*148 FILLER_10_130
*149 FILLER_10_138
*150 FILLER_10_141
*151 FILLER_10_15
*152 FILLER_10_153
*153 FILLER_10_165
*154 FILLER_10_177
*155 FILLER_10_189
*156 FILLER_10_195
*157 FILLER_10_197
*158 FILLER_10_209
*159 FILLER_10_221
*160 FILLER_10_233
*161 FILLER_10_245
*162 FILLER_10_251
*163 FILLER_10_253
*164 FILLER_10_265
*165 FILLER_10_27
*166 FILLER_10_277
*167 FILLER_10_289
*168 FILLER_10_29
*169 FILLER_10_297
*170 FILLER_10_3
*171 FILLER_10_41
*172 FILLER_10_48
*173 FILLER_10_60
*174 FILLER_10_72
*175 FILLER_10_85
*176 FILLER_10_93
*177 FILLER_11_108
*178 FILLER_11_11
*179 FILLER_11_113
*180 FILLER_11_127
*181 FILLER_11_139
*182 FILLER_11_15
*183 FILLER_11_151
*184 FILLER_11_163
*185 FILLER_11_167
*186 FILLER_11_169
*187 FILLER_11_181
*188 FILLER_11_193
*189 FILLER_11_205
*190 FILLER_11_21
*191 FILLER_11_217
*192 FILLER_11_223
*193 FILLER_11_225
*194 FILLER_11_237
*195 FILLER_11_249
*196 FILLER_11_261
*197 FILLER_11_273
*198 FILLER_11_279
*199 FILLER_11_28
*200 FILLER_11_281
*201 FILLER_11_293
*202 FILLER_11_3
*203 FILLER_11_40
*204 FILLER_11_52
*205 FILLER_11_65
*206 FILLER_11_7
*207 FILLER_11_77
*208 FILLER_11_89
*209 FILLER_11_97
*210 FILLER_12_109
*211 FILLER_12_120
*212 FILLER_12_136
*213 FILLER_12_141
*214 FILLER_12_15
*215 FILLER_12_155
*216 FILLER_12_167
*217 FILLER_12_179
*218 FILLER_12_191
*219 FILLER_12_195
*220 FILLER_12_197
*221 FILLER_12_209
*222 FILLER_12_221
*223 FILLER_12_233
*224 FILLER_12_24
*225 FILLER_12_245
*226 FILLER_12_251
*227 FILLER_12_253
*228 FILLER_12_265
*229 FILLER_12_277
*230 FILLER_12_289
*231 FILLER_12_29
*232 FILLER_12_297
*233 FILLER_12_3
*234 FILLER_12_41
*235 FILLER_12_53
*236 FILLER_12_65
*237 FILLER_12_73
*238 FILLER_12_81
*239 FILLER_12_85
*240 FILLER_12_97
*241 FILLER_13_105
*242 FILLER_13_111
*243 FILLER_13_116
*244 FILLER_13_128
*245 FILLER_13_140
*246 FILLER_13_15
*247 FILLER_13_152
*248 FILLER_13_164
*249 FILLER_13_169
*250 FILLER_13_181
*251 FILLER_13_193
*252 FILLER_13_205
*253 FILLER_13_217
*254 FILLER_13_223
*255 FILLER_13_225
*256 FILLER_13_237
*257 FILLER_13_249
*258 FILLER_13_261
*259 FILLER_13_27
*260 FILLER_13_273
*261 FILLER_13_279
*262 FILLER_13_281
*263 FILLER_13_293
*264 FILLER_13_3
*265 FILLER_13_39
*266 FILLER_13_51
*267 FILLER_13_55
*268 FILLER_13_57
*269 FILLER_13_69
*270 FILLER_13_81
*271 FILLER_13_93
*272 FILLER_14_109
*273 FILLER_14_11
*274 FILLER_14_121
*275 FILLER_14_136
*276 FILLER_14_141
*277 FILLER_14_146
*278 FILLER_14_15
*279 FILLER_14_159
*280 FILLER_14_171
*281 FILLER_14_183
*282 FILLER_14_195
*283 FILLER_14_197
*284 FILLER_14_209
*285 FILLER_14_221
*286 FILLER_14_233
*287 FILLER_14_245
*288 FILLER_14_251
*289 FILLER_14_253
*290 FILLER_14_265
*291 FILLER_14_27
*292 FILLER_14_277
*293 FILLER_14_289
*294 FILLER_14_29
*295 FILLER_14_297
*296 FILLER_14_3
*297 FILLER_14_41
*298 FILLER_14_45
*299 FILLER_14_50
*300 FILLER_14_62
*301 FILLER_14_67
*302 FILLER_14_79
*303 FILLER_14_83
*304 FILLER_14_85
*305 FILLER_14_97
*306 FILLER_15_106
*307 FILLER_15_113
*308 FILLER_15_125
*309 FILLER_15_137
*310 FILLER_15_149
*311 FILLER_15_16
*312 FILLER_15_161
*313 FILLER_15_167
*314 FILLER_15_169
*315 FILLER_15_181
*316 FILLER_15_193
*317 FILLER_15_205
*318 FILLER_15_217
*319 FILLER_15_223
*320 FILLER_15_225
*321 FILLER_15_237
*322 FILLER_15_24
*323 FILLER_15_249
*324 FILLER_15_261
*325 FILLER_15_273
*326 FILLER_15_279
*327 FILLER_15_281
*328 FILLER_15_293
*329 FILLER_15_3
*330 FILLER_15_30
*331 FILLER_15_42
*332 FILLER_15_52
*333 FILLER_15_64
*334 FILLER_15_76
*335 FILLER_15_88
*336 FILLER_15_96
*337 FILLER_16_109
*338 FILLER_16_121
*339 FILLER_16_133
*340 FILLER_16_139
*341 FILLER_16_147
*342 FILLER_16_159
*343 FILLER_16_17
*344 FILLER_16_171
*345 FILLER_16_183
*346 FILLER_16_195
*347 FILLER_16_197
*348 FILLER_16_209
*349 FILLER_16_221
*350 FILLER_16_233
*351 FILLER_16_245
*352 FILLER_16_25
*353 FILLER_16_251
*354 FILLER_16_253
*355 FILLER_16_265
*356 FILLER_16_277
*357 FILLER_16_289
*358 FILLER_16_29
*359 FILLER_16_297
*360 FILLER_16_33
*361 FILLER_16_40
*362 FILLER_16_52
*363 FILLER_16_6
*364 FILLER_16_64
*365 FILLER_16_76
*366 FILLER_16_85
*367 FILLER_16_97
*368 FILLER_17_102
*369 FILLER_17_110
*370 FILLER_17_113
*371 FILLER_17_125
*372 FILLER_17_137
*373 FILLER_17_149
*374 FILLER_17_16
*375 FILLER_17_161
*376 FILLER_17_167
*377 FILLER_17_169
*378 FILLER_17_181
*379 FILLER_17_193
*380 FILLER_17_205
*381 FILLER_17_217
*382 FILLER_17_223
*383 FILLER_17_225
*384 FILLER_17_237
*385 FILLER_17_24
*386 FILLER_17_249
*387 FILLER_17_261
*388 FILLER_17_273
*389 FILLER_17_279
*390 FILLER_17_281
*391 FILLER_17_293
*392 FILLER_17_3
*393 FILLER_17_30
*394 FILLER_17_42
*395 FILLER_17_54
*396 FILLER_17_57
*397 FILLER_17_66
*398 FILLER_17_78
*399 FILLER_17_90
*400 FILLER_18_10
*401 FILLER_18_106
*402 FILLER_18_118
*403 FILLER_18_122
*404 FILLER_18_134
*405 FILLER_18_14
*406 FILLER_18_141
*407 FILLER_18_157
*408 FILLER_18_169
*409 FILLER_18_181
*410 FILLER_18_193
*411 FILLER_18_197
*412 FILLER_18_209
*413 FILLER_18_221
*414 FILLER_18_233
*415 FILLER_18_24
*416 FILLER_18_245
*417 FILLER_18_251
*418 FILLER_18_253
*419 FILLER_18_265
*420 FILLER_18_277
*421 FILLER_18_289
*422 FILLER_18_297
*423 FILLER_18_3
*424 FILLER_18_34
*425 FILLER_18_46
*426 FILLER_18_58
*427 FILLER_18_70
*428 FILLER_18_82
*429 FILLER_18_85
*430 FILLER_18_97
*431 FILLER_19_105
*432 FILLER_19_111
*433 FILLER_19_113
*434 FILLER_19_125
*435 FILLER_19_137
*436 FILLER_19_149
*437 FILLER_19_15
*438 FILLER_19_161
*439 FILLER_19_167
*440 FILLER_19_169
*441 FILLER_19_181
*442 FILLER_19_193
*443 FILLER_19_205
*444 FILLER_19_217
*445 FILLER_19_223
*446 FILLER_19_225
*447 FILLER_19_23
*448 FILLER_19_237
*449 FILLER_19_249
*450 FILLER_19_261
*451 FILLER_19_273
*452 FILLER_19_279
*453 FILLER_19_281
*454 FILLER_19_293
*455 FILLER_19_3
*456 FILLER_19_35
*457 FILLER_19_47
*458 FILLER_19_55
*459 FILLER_19_57
*460 FILLER_19_69
*461 FILLER_19_81
*462 FILLER_19_93
*463 FILLER_1_105
*464 FILLER_1_111
*465 FILLER_1_120
*466 FILLER_1_132
*467 FILLER_1_144
*468 FILLER_1_156
*469 FILLER_1_169
*470 FILLER_1_181
*471 FILLER_1_193
*472 FILLER_1_205
*473 FILLER_1_217
*474 FILLER_1_223
*475 FILLER_1_225
*476 FILLER_1_237
*477 FILLER_1_249
*478 FILLER_1_261
*479 FILLER_1_27
*480 FILLER_1_273
*481 FILLER_1_279
*482 FILLER_1_281
*483 FILLER_1_293
*484 FILLER_1_3
*485 FILLER_1_47
*486 FILLER_1_55
*487 FILLER_1_57
*488 FILLER_1_69
*489 FILLER_1_81
*490 FILLER_1_93
*491 FILLER_20_103
*492 FILLER_20_115
*493 FILLER_20_127
*494 FILLER_20_139
*495 FILLER_20_141
*496 FILLER_20_153
*497 FILLER_20_165
*498 FILLER_20_17
*499 FILLER_20_177
*500 FILLER_20_189
*501 FILLER_20_195
*502 FILLER_20_197
*503 FILLER_20_209
*504 FILLER_20_221
*505 FILLER_20_233
*506 FILLER_20_245
*507 FILLER_20_25
*508 FILLER_20_251
*509 FILLER_20_253
*510 FILLER_20_265
*511 FILLER_20_277
*512 FILLER_20_289
*513 FILLER_20_29
*514 FILLER_20_297
*515 FILLER_20_41
*516 FILLER_20_53
*517 FILLER_20_65
*518 FILLER_20_77
*519 FILLER_20_8
*520 FILLER_20_83
*521 FILLER_20_85
*522 FILLER_20_97
*523 FILLER_21_11
*524 FILLER_21_110
*525 FILLER_21_113
*526 FILLER_21_122
*527 FILLER_21_134
*528 FILLER_21_146
*529 FILLER_21_158
*530 FILLER_21_166
*531 FILLER_21_169
*532 FILLER_21_181
*533 FILLER_21_193
*534 FILLER_21_205
*535 FILLER_21_21
*536 FILLER_21_217
*537 FILLER_21_223
*538 FILLER_21_225
*539 FILLER_21_237
*540 FILLER_21_249
*541 FILLER_21_261
*542 FILLER_21_273
*543 FILLER_21_279
*544 FILLER_21_281
*545 FILLER_21_293
*546 FILLER_21_3
*547 FILLER_21_33
*548 FILLER_21_45
*549 FILLER_21_53
*550 FILLER_21_62
*551 FILLER_21_74
*552 FILLER_21_86
*553 FILLER_21_98
*554 FILLER_22_109
*555 FILLER_22_121
*556 FILLER_22_133
*557 FILLER_22_139
*558 FILLER_22_141
*559 FILLER_22_15
*560 FILLER_22_153
*561 FILLER_22_165
*562 FILLER_22_177
*563 FILLER_22_189
*564 FILLER_22_195
*565 FILLER_22_197
*566 FILLER_22_209
*567 FILLER_22_221
*568 FILLER_22_23
*569 FILLER_22_233
*570 FILLER_22_245
*571 FILLER_22_251
*572 FILLER_22_253
*573 FILLER_22_265
*574 FILLER_22_27
*575 FILLER_22_277
*576 FILLER_22_289
*577 FILLER_22_29
*578 FILLER_22_297
*579 FILLER_22_3
*580 FILLER_22_41
*581 FILLER_22_53
*582 FILLER_22_65
*583 FILLER_22_77
*584 FILLER_22_83
*585 FILLER_22_85
*586 FILLER_22_97
*587 FILLER_23_10
*588 FILLER_23_105
*589 FILLER_23_111
*590 FILLER_23_113
*591 FILLER_23_125
*592 FILLER_23_137
*593 FILLER_23_149
*594 FILLER_23_161
*595 FILLER_23_167
*596 FILLER_23_169
*597 FILLER_23_181
*598 FILLER_23_193
*599 FILLER_23_205
*600 FILLER_23_217
*601 FILLER_23_22
*602 FILLER_23_223
*603 FILLER_23_225
*604 FILLER_23_237
*605 FILLER_23_249
*606 FILLER_23_261
*607 FILLER_23_273
*608 FILLER_23_279
*609 FILLER_23_281
*610 FILLER_23_293
*611 FILLER_23_34
*612 FILLER_23_46
*613 FILLER_23_54
*614 FILLER_23_57
*615 FILLER_23_69
*616 FILLER_23_81
*617 FILLER_23_93
*618 FILLER_24_109
*619 FILLER_24_11
*620 FILLER_24_121
*621 FILLER_24_133
*622 FILLER_24_139
*623 FILLER_24_141
*624 FILLER_24_153
*625 FILLER_24_165
*626 FILLER_24_177
*627 FILLER_24_189
*628 FILLER_24_195
*629 FILLER_24_197
*630 FILLER_24_209
*631 FILLER_24_221
*632 FILLER_24_23
*633 FILLER_24_233
*634 FILLER_24_245
*635 FILLER_24_251
*636 FILLER_24_253
*637 FILLER_24_265
*638 FILLER_24_27
*639 FILLER_24_277
*640 FILLER_24_289
*641 FILLER_24_29
*642 FILLER_24_297
*643 FILLER_24_3
*644 FILLER_24_33
*645 FILLER_24_40
*646 FILLER_24_52
*647 FILLER_24_64
*648 FILLER_24_76
*649 FILLER_24_85
*650 FILLER_24_97
*651 FILLER_25_105
*652 FILLER_25_111
*653 FILLER_25_113
*654 FILLER_25_125
*655 FILLER_25_137
*656 FILLER_25_149
*657 FILLER_25_15
*658 FILLER_25_161
*659 FILLER_25_167
*660 FILLER_25_169
*661 FILLER_25_181
*662 FILLER_25_193
*663 FILLER_25_205
*664 FILLER_25_217
*665 FILLER_25_223
*666 FILLER_25_225
*667 FILLER_25_237
*668 FILLER_25_249
*669 FILLER_25_261
*670 FILLER_25_27
*671 FILLER_25_273
*672 FILLER_25_279
*673 FILLER_25_281
*674 FILLER_25_293
*675 FILLER_25_3
*676 FILLER_25_39
*677 FILLER_25_51
*678 FILLER_25_55
*679 FILLER_25_57
*680 FILLER_25_69
*681 FILLER_25_81
*682 FILLER_25_93
*683 FILLER_26_109
*684 FILLER_26_121
*685 FILLER_26_133
*686 FILLER_26_139
*687 FILLER_26_141
*688 FILLER_26_153
*689 FILLER_26_165
*690 FILLER_26_177
*691 FILLER_26_189
*692 FILLER_26_195
*693 FILLER_26_197
*694 FILLER_26_209
*695 FILLER_26_21
*696 FILLER_26_221
*697 FILLER_26_233
*698 FILLER_26_245
*699 FILLER_26_251
*700 FILLER_26_253
*701 FILLER_26_265
*702 FILLER_26_27
*703 FILLER_26_277
*704 FILLER_26_289
*705 FILLER_26_29
*706 FILLER_26_297
*707 FILLER_26_3
*708 FILLER_26_41
*709 FILLER_26_53
*710 FILLER_26_65
*711 FILLER_26_77
*712 FILLER_26_83
*713 FILLER_26_85
*714 FILLER_26_9
*715 FILLER_26_97
*716 FILLER_27_105
*717 FILLER_27_111
*718 FILLER_27_113
*719 FILLER_27_125
*720 FILLER_27_137
*721 FILLER_27_149
*722 FILLER_27_15
*723 FILLER_27_161
*724 FILLER_27_167
*725 FILLER_27_169
*726 FILLER_27_181
*727 FILLER_27_193
*728 FILLER_27_205
*729 FILLER_27_217
*730 FILLER_27_223
*731 FILLER_27_225
*732 FILLER_27_237
*733 FILLER_27_249
*734 FILLER_27_261
*735 FILLER_27_27
*736 FILLER_27_273
*737 FILLER_27_279
*738 FILLER_27_281
*739 FILLER_27_293
*740 FILLER_27_3
*741 FILLER_27_39
*742 FILLER_27_51
*743 FILLER_27_55
*744 FILLER_27_57
*745 FILLER_27_69
*746 FILLER_27_81
*747 FILLER_27_93
*748 FILLER_28_109
*749 FILLER_28_121
*750 FILLER_28_133
*751 FILLER_28_139
*752 FILLER_28_141
*753 FILLER_28_15
*754 FILLER_28_153
*755 FILLER_28_165
*756 FILLER_28_177
*757 FILLER_28_189
*758 FILLER_28_195
*759 FILLER_28_197
*760 FILLER_28_209
*761 FILLER_28_221
*762 FILLER_28_233
*763 FILLER_28_245
*764 FILLER_28_251
*765 FILLER_28_253
*766 FILLER_28_265
*767 FILLER_28_27
*768 FILLER_28_277
*769 FILLER_28_289
*770 FILLER_28_29
*771 FILLER_28_297
*772 FILLER_28_3
*773 FILLER_28_41
*774 FILLER_28_53
*775 FILLER_28_65
*776 FILLER_28_77
*777 FILLER_28_83
*778 FILLER_28_85
*779 FILLER_28_97
*780 FILLER_29_105
*781 FILLER_29_111
*782 FILLER_29_113
*783 FILLER_29_125
*784 FILLER_29_137
*785 FILLER_29_149
*786 FILLER_29_15
*787 FILLER_29_161
*788 FILLER_29_167
*789 FILLER_29_169
*790 FILLER_29_181
*791 FILLER_29_193
*792 FILLER_29_205
*793 FILLER_29_217
*794 FILLER_29_223
*795 FILLER_29_225
*796 FILLER_29_237
*797 FILLER_29_249
*798 FILLER_29_261
*799 FILLER_29_27
*800 FILLER_29_273
*801 FILLER_29_279
*802 FILLER_29_281
*803 FILLER_29_293
*804 FILLER_29_3
*805 FILLER_29_39
*806 FILLER_29_51
*807 FILLER_29_55
*808 FILLER_29_57
*809 FILLER_29_69
*810 FILLER_29_81
*811 FILLER_29_93
*812 FILLER_2_109
*813 FILLER_2_121
*814 FILLER_2_133
*815 FILLER_2_139
*816 FILLER_2_141
*817 FILLER_2_153
*818 FILLER_2_165
*819 FILLER_2_177
*820 FILLER_2_189
*821 FILLER_2_195
*822 FILLER_2_197
*823 FILLER_2_209
*824 FILLER_2_221
*825 FILLER_2_233
*826 FILLER_2_24
*827 FILLER_2_245
*828 FILLER_2_251
*829 FILLER_2_253
*830 FILLER_2_265
*831 FILLER_2_277
*832 FILLER_2_289
*833 FILLER_2_29
*834 FILLER_2_297
*835 FILLER_2_3
*836 FILLER_2_41
*837 FILLER_2_53
*838 FILLER_2_65
*839 FILLER_2_7
*840 FILLER_2_77
*841 FILLER_2_83
*842 FILLER_2_85
*843 FILLER_2_97
*844 FILLER_30_109
*845 FILLER_30_121
*846 FILLER_30_133
*847 FILLER_30_139
*848 FILLER_30_141
*849 FILLER_30_15
*850 FILLER_30_153
*851 FILLER_30_165
*852 FILLER_30_177
*853 FILLER_30_189
*854 FILLER_30_195
*855 FILLER_30_197
*856 FILLER_30_209
*857 FILLER_30_221
*858 FILLER_30_233
*859 FILLER_30_245
*860 FILLER_30_251
*861 FILLER_30_253
*862 FILLER_30_265
*863 FILLER_30_27
*864 FILLER_30_277
*865 FILLER_30_289
*866 FILLER_30_29
*867 FILLER_30_297
*868 FILLER_30_3
*869 FILLER_30_41
*870 FILLER_30_53
*871 FILLER_30_65
*872 FILLER_30_77
*873 FILLER_30_83
*874 FILLER_30_85
*875 FILLER_30_97
*876 FILLER_31_105
*877 FILLER_31_111
*878 FILLER_31_113
*879 FILLER_31_125
*880 FILLER_31_137
*881 FILLER_31_149
*882 FILLER_31_15
*883 FILLER_31_161
*884 FILLER_31_167
*885 FILLER_31_169
*886 FILLER_31_181
*887 FILLER_31_193
*888 FILLER_31_205
*889 FILLER_31_217
*890 FILLER_31_223
*891 FILLER_31_225
*892 FILLER_31_237
*893 FILLER_31_249
*894 FILLER_31_261
*895 FILLER_31_27
*896 FILLER_31_273
*897 FILLER_31_279
*898 FILLER_31_281
*899 FILLER_31_293
*900 FILLER_31_3
*901 FILLER_31_39
*902 FILLER_31_51
*903 FILLER_31_55
*904 FILLER_31_57
*905 FILLER_31_69
*906 FILLER_31_81
*907 FILLER_31_93
*908 FILLER_32_109
*909 FILLER_32_121
*910 FILLER_32_133
*911 FILLER_32_139
*912 FILLER_32_141
*913 FILLER_32_15
*914 FILLER_32_153
*915 FILLER_32_165
*916 FILLER_32_177
*917 FILLER_32_189
*918 FILLER_32_195
*919 FILLER_32_197
*920 FILLER_32_209
*921 FILLER_32_221
*922 FILLER_32_233
*923 FILLER_32_245
*924 FILLER_32_251
*925 FILLER_32_253
*926 FILLER_32_265
*927 FILLER_32_27
*928 FILLER_32_277
*929 FILLER_32_289
*930 FILLER_32_29
*931 FILLER_32_297
*932 FILLER_32_3
*933 FILLER_32_41
*934 FILLER_32_53
*935 FILLER_32_65
*936 FILLER_32_77
*937 FILLER_32_83
*938 FILLER_32_85
*939 FILLER_32_97
*940 FILLER_33_105
*941 FILLER_33_111
*942 FILLER_33_113
*943 FILLER_33_12
*944 FILLER_33_125
*945 FILLER_33_137
*946 FILLER_33_149
*947 FILLER_33_161
*948 FILLER_33_167
*949 FILLER_33_169
*950 FILLER_33_181
*951 FILLER_33_193
*952 FILLER_33_205
*953 FILLER_33_217
*954 FILLER_33_223
*955 FILLER_33_225
*956 FILLER_33_237
*957 FILLER_33_24
*958 FILLER_33_249
*959 FILLER_33_261
*960 FILLER_33_273
*961 FILLER_33_279
*962 FILLER_33_281
*963 FILLER_33_293
*964 FILLER_33_3
*965 FILLER_33_36
*966 FILLER_33_48
*967 FILLER_33_57
*968 FILLER_33_69
*969 FILLER_33_7
*970 FILLER_33_81
*971 FILLER_33_93
*972 FILLER_34_109
*973 FILLER_34_121
*974 FILLER_34_133
*975 FILLER_34_139
*976 FILLER_34_141
*977 FILLER_34_15
*978 FILLER_34_153
*979 FILLER_34_165
*980 FILLER_34_177
*981 FILLER_34_189
*982 FILLER_34_195
*983 FILLER_34_197
*984 FILLER_34_209
*985 FILLER_34_221
*986 FILLER_34_233
*987 FILLER_34_245
*988 FILLER_34_251
*989 FILLER_34_253
*990 FILLER_34_265
*991 FILLER_34_27
*992 FILLER_34_277
*993 FILLER_34_289
*994 FILLER_34_29
*995 FILLER_34_297
*996 FILLER_34_3
*997 FILLER_34_41
*998 FILLER_34_53
*999 FILLER_34_65
*1000 FILLER_34_77
*1001 FILLER_34_83
*1002 FILLER_34_85
*1003 FILLER_34_97
*1004 FILLER_35_105
*1005 FILLER_35_111
*1006 FILLER_35_113
*1007 FILLER_35_125
*1008 FILLER_35_137
*1009 FILLER_35_149
*1010 FILLER_35_15
*1011 FILLER_35_161
*1012 FILLER_35_167
*1013 FILLER_35_169
*1014 FILLER_35_181
*1015 FILLER_35_193
*1016 FILLER_35_205
*1017 FILLER_35_217
*1018 FILLER_35_223
*1019 FILLER_35_225
*1020 FILLER_35_237
*1021 FILLER_35_249
*1022 FILLER_35_261
*1023 FILLER_35_27
*1024 FILLER_35_273
*1025 FILLER_35_279
*1026 FILLER_35_281
*1027 FILLER_35_293
*1028 FILLER_35_3
*1029 FILLER_35_39
*1030 FILLER_35_51
*1031 FILLER_35_55
*1032 FILLER_35_57
*1033 FILLER_35_69
*1034 FILLER_35_81
*1035 FILLER_35_93
*1036 FILLER_36_109
*1037 FILLER_36_121
*1038 FILLER_36_133
*1039 FILLER_36_139
*1040 FILLER_36_141
*1041 FILLER_36_15
*1042 FILLER_36_153
*1043 FILLER_36_165
*1044 FILLER_36_177
*1045 FILLER_36_189
*1046 FILLER_36_195
*1047 FILLER_36_197
*1048 FILLER_36_209
*1049 FILLER_36_221
*1050 FILLER_36_233
*1051 FILLER_36_245
*1052 FILLER_36_251
*1053 FILLER_36_253
*1054 FILLER_36_265
*1055 FILLER_36_27
*1056 FILLER_36_277
*1057 FILLER_36_289
*1058 FILLER_36_29
*1059 FILLER_36_297
*1060 FILLER_36_3
*1061 FILLER_36_41
*1062 FILLER_36_53
*1063 FILLER_36_65
*1064 FILLER_36_77
*1065 FILLER_36_83
*1066 FILLER_36_85
*1067 FILLER_36_97
*1068 FILLER_37_105
*1069 FILLER_37_111
*1070 FILLER_37_113
*1071 FILLER_37_125
*1072 FILLER_37_137
*1073 FILLER_37_149
*1074 FILLER_37_161
*1075 FILLER_37_167
*1076 FILLER_37_169
*1077 FILLER_37_181
*1078 FILLER_37_193
*1079 FILLER_37_205
*1080 FILLER_37_21
*1081 FILLER_37_217
*1082 FILLER_37_223
*1083 FILLER_37_225
*1084 FILLER_37_237
*1085 FILLER_37_249
*1086 FILLER_37_261
*1087 FILLER_37_273
*1088 FILLER_37_279
*1089 FILLER_37_281
*1090 FILLER_37_293
*1091 FILLER_37_3
*1092 FILLER_37_33
*1093 FILLER_37_45
*1094 FILLER_37_53
*1095 FILLER_37_57
*1096 FILLER_37_69
*1097 FILLER_37_81
*1098 FILLER_37_9
*1099 FILLER_37_93
*1100 FILLER_38_109
*1101 FILLER_38_121
*1102 FILLER_38_133
*1103 FILLER_38_139
*1104 FILLER_38_141
*1105 FILLER_38_15
*1106 FILLER_38_153
*1107 FILLER_38_165
*1108 FILLER_38_177
*1109 FILLER_38_189
*1110 FILLER_38_195
*1111 FILLER_38_197
*1112 FILLER_38_209
*1113 FILLER_38_221
*1114 FILLER_38_233
*1115 FILLER_38_245
*1116 FILLER_38_251
*1117 FILLER_38_253
*1118 FILLER_38_265
*1119 FILLER_38_27
*1120 FILLER_38_277
*1121 FILLER_38_289
*1122 FILLER_38_29
*1123 FILLER_38_297
*1124 FILLER_38_3
*1125 FILLER_38_41
*1126 FILLER_38_53
*1127 FILLER_38_65
*1128 FILLER_38_77
*1129 FILLER_38_83
*1130 FILLER_38_85
*1131 FILLER_38_97
*1132 FILLER_39_105
*1133 FILLER_39_111
*1134 FILLER_39_113
*1135 FILLER_39_125
*1136 FILLER_39_137
*1137 FILLER_39_149
*1138 FILLER_39_15
*1139 FILLER_39_161
*1140 FILLER_39_167
*1141 FILLER_39_169
*1142 FILLER_39_181
*1143 FILLER_39_193
*1144 FILLER_39_205
*1145 FILLER_39_217
*1146 FILLER_39_223
*1147 FILLER_39_225
*1148 FILLER_39_237
*1149 FILLER_39_249
*1150 FILLER_39_261
*1151 FILLER_39_27
*1152 FILLER_39_273
*1153 FILLER_39_279
*1154 FILLER_39_281
*1155 FILLER_39_293
*1156 FILLER_39_3
*1157 FILLER_39_39
*1158 FILLER_39_51
*1159 FILLER_39_55
*1160 FILLER_39_57
*1161 FILLER_39_69
*1162 FILLER_39_81
*1163 FILLER_39_93
*1164 FILLER_3_105
*1165 FILLER_3_111
*1166 FILLER_3_121
*1167 FILLER_3_133
*1168 FILLER_3_145
*1169 FILLER_3_157
*1170 FILLER_3_165
*1171 FILLER_3_169
*1172 FILLER_3_181
*1173 FILLER_3_193
*1174 FILLER_3_205
*1175 FILLER_3_217
*1176 FILLER_3_223
*1177 FILLER_3_225
*1178 FILLER_3_237
*1179 FILLER_3_249
*1180 FILLER_3_25
*1181 FILLER_3_261
*1182 FILLER_3_273
*1183 FILLER_3_279
*1184 FILLER_3_281
*1185 FILLER_3_293
*1186 FILLER_3_3
*1187 FILLER_3_45
*1188 FILLER_3_53
*1189 FILLER_3_57
*1190 FILLER_3_69
*1191 FILLER_3_81
*1192 FILLER_3_93
*1193 FILLER_40_109
*1194 FILLER_40_121
*1195 FILLER_40_133
*1196 FILLER_40_139
*1197 FILLER_40_141
*1198 FILLER_40_15
*1199 FILLER_40_153
*1200 FILLER_40_165
*1201 FILLER_40_177
*1202 FILLER_40_189
*1203 FILLER_40_195
*1204 FILLER_40_197
*1205 FILLER_40_209
*1206 FILLER_40_221
*1207 FILLER_40_233
*1208 FILLER_40_245
*1209 FILLER_40_251
*1210 FILLER_40_253
*1211 FILLER_40_265
*1212 FILLER_40_27
*1213 FILLER_40_277
*1214 FILLER_40_289
*1215 FILLER_40_29
*1216 FILLER_40_297
*1217 FILLER_40_3
*1218 FILLER_40_41
*1219 FILLER_40_53
*1220 FILLER_40_65
*1221 FILLER_40_77
*1222 FILLER_40_83
*1223 FILLER_40_85
*1224 FILLER_40_97
*1225 FILLER_41_105
*1226 FILLER_41_111
*1227 FILLER_41_113
*1228 FILLER_41_125
*1229 FILLER_41_137
*1230 FILLER_41_149
*1231 FILLER_41_15
*1232 FILLER_41_161
*1233 FILLER_41_167
*1234 FILLER_41_169
*1235 FILLER_41_181
*1236 FILLER_41_193
*1237 FILLER_41_205
*1238 FILLER_41_217
*1239 FILLER_41_223
*1240 FILLER_41_225
*1241 FILLER_41_237
*1242 FILLER_41_249
*1243 FILLER_41_261
*1244 FILLER_41_27
*1245 FILLER_41_273
*1246 FILLER_41_279
*1247 FILLER_41_281
*1248 FILLER_41_293
*1249 FILLER_41_3
*1250 FILLER_41_39
*1251 FILLER_41_51
*1252 FILLER_41_55
*1253 FILLER_41_57
*1254 FILLER_41_69
*1255 FILLER_41_81
*1256 FILLER_41_93
*1257 FILLER_42_109
*1258 FILLER_42_121
*1259 FILLER_42_133
*1260 FILLER_42_139
*1261 FILLER_42_141
*1262 FILLER_42_15
*1263 FILLER_42_153
*1264 FILLER_42_165
*1265 FILLER_42_177
*1266 FILLER_42_189
*1267 FILLER_42_195
*1268 FILLER_42_197
*1269 FILLER_42_209
*1270 FILLER_42_221
*1271 FILLER_42_233
*1272 FILLER_42_245
*1273 FILLER_42_251
*1274 FILLER_42_253
*1275 FILLER_42_265
*1276 FILLER_42_27
*1277 FILLER_42_277
*1278 FILLER_42_289
*1279 FILLER_42_29
*1280 FILLER_42_297
*1281 FILLER_42_3
*1282 FILLER_42_41
*1283 FILLER_42_53
*1284 FILLER_42_65
*1285 FILLER_42_77
*1286 FILLER_42_83
*1287 FILLER_42_85
*1288 FILLER_42_97
*1289 FILLER_43_105
*1290 FILLER_43_111
*1291 FILLER_43_113
*1292 FILLER_43_125
*1293 FILLER_43_137
*1294 FILLER_43_149
*1295 FILLER_43_15
*1296 FILLER_43_161
*1297 FILLER_43_167
*1298 FILLER_43_169
*1299 FILLER_43_181
*1300 FILLER_43_193
*1301 FILLER_43_205
*1302 FILLER_43_217
*1303 FILLER_43_223
*1304 FILLER_43_225
*1305 FILLER_43_237
*1306 FILLER_43_249
*1307 FILLER_43_261
*1308 FILLER_43_27
*1309 FILLER_43_273
*1310 FILLER_43_279
*1311 FILLER_43_281
*1312 FILLER_43_293
*1313 FILLER_43_3
*1314 FILLER_43_39
*1315 FILLER_43_51
*1316 FILLER_43_55
*1317 FILLER_43_57
*1318 FILLER_43_69
*1319 FILLER_43_81
*1320 FILLER_43_93
*1321 FILLER_44_109
*1322 FILLER_44_121
*1323 FILLER_44_133
*1324 FILLER_44_139
*1325 FILLER_44_141
*1326 FILLER_44_15
*1327 FILLER_44_153
*1328 FILLER_44_165
*1329 FILLER_44_177
*1330 FILLER_44_189
*1331 FILLER_44_195
*1332 FILLER_44_197
*1333 FILLER_44_209
*1334 FILLER_44_221
*1335 FILLER_44_233
*1336 FILLER_44_245
*1337 FILLER_44_251
*1338 FILLER_44_253
*1339 FILLER_44_265
*1340 FILLER_44_27
*1341 FILLER_44_277
*1342 FILLER_44_289
*1343 FILLER_44_29
*1344 FILLER_44_297
*1345 FILLER_44_3
*1346 FILLER_44_41
*1347 FILLER_44_53
*1348 FILLER_44_65
*1349 FILLER_44_77
*1350 FILLER_44_83
*1351 FILLER_44_85
*1352 FILLER_44_97
*1353 FILLER_45_105
*1354 FILLER_45_111
*1355 FILLER_45_113
*1356 FILLER_45_125
*1357 FILLER_45_137
*1358 FILLER_45_149
*1359 FILLER_45_15
*1360 FILLER_45_161
*1361 FILLER_45_167
*1362 FILLER_45_169
*1363 FILLER_45_181
*1364 FILLER_45_193
*1365 FILLER_45_205
*1366 FILLER_45_217
*1367 FILLER_45_223
*1368 FILLER_45_225
*1369 FILLER_45_237
*1370 FILLER_45_249
*1371 FILLER_45_261
*1372 FILLER_45_27
*1373 FILLER_45_273
*1374 FILLER_45_279
*1375 FILLER_45_281
*1376 FILLER_45_293
*1377 FILLER_45_3
*1378 FILLER_45_39
*1379 FILLER_45_51
*1380 FILLER_45_55
*1381 FILLER_45_57
*1382 FILLER_45_69
*1383 FILLER_45_81
*1384 FILLER_45_93
*1385 FILLER_46_109
*1386 FILLER_46_121
*1387 FILLER_46_133
*1388 FILLER_46_139
*1389 FILLER_46_141
*1390 FILLER_46_15
*1391 FILLER_46_153
*1392 FILLER_46_165
*1393 FILLER_46_177
*1394 FILLER_46_189
*1395 FILLER_46_195
*1396 FILLER_46_197
*1397 FILLER_46_209
*1398 FILLER_46_221
*1399 FILLER_46_233
*1400 FILLER_46_245
*1401 FILLER_46_251
*1402 FILLER_46_253
*1403 FILLER_46_265
*1404 FILLER_46_27
*1405 FILLER_46_277
*1406 FILLER_46_289
*1407 FILLER_46_29
*1408 FILLER_46_297
*1409 FILLER_46_3
*1410 FILLER_46_41
*1411 FILLER_46_53
*1412 FILLER_46_65
*1413 FILLER_46_77
*1414 FILLER_46_83
*1415 FILLER_46_85
*1416 FILLER_46_97
*1417 FILLER_47_105
*1418 FILLER_47_111
*1419 FILLER_47_113
*1420 FILLER_47_125
*1421 FILLER_47_137
*1422 FILLER_47_149
*1423 FILLER_47_15
*1424 FILLER_47_161
*1425 FILLER_47_167
*1426 FILLER_47_169
*1427 FILLER_47_181
*1428 FILLER_47_193
*1429 FILLER_47_205
*1430 FILLER_47_217
*1431 FILLER_47_223
*1432 FILLER_47_225
*1433 FILLER_47_237
*1434 FILLER_47_249
*1435 FILLER_47_261
*1436 FILLER_47_27
*1437 FILLER_47_273
*1438 FILLER_47_279
*1439 FILLER_47_281
*1440 FILLER_47_293
*1441 FILLER_47_3
*1442 FILLER_47_39
*1443 FILLER_47_51
*1444 FILLER_47_55
*1445 FILLER_47_57
*1446 FILLER_47_69
*1447 FILLER_47_81
*1448 FILLER_47_93
*1449 FILLER_48_109
*1450 FILLER_48_121
*1451 FILLER_48_133
*1452 FILLER_48_139
*1453 FILLER_48_141
*1454 FILLER_48_15
*1455 FILLER_48_153
*1456 FILLER_48_165
*1457 FILLER_48_177
*1458 FILLER_48_189
*1459 FILLER_48_195
*1460 FILLER_48_197
*1461 FILLER_48_209
*1462 FILLER_48_221
*1463 FILLER_48_233
*1464 FILLER_48_245
*1465 FILLER_48_251
*1466 FILLER_48_253
*1467 FILLER_48_265
*1468 FILLER_48_27
*1469 FILLER_48_277
*1470 FILLER_48_289
*1471 FILLER_48_29
*1472 FILLER_48_297
*1473 FILLER_48_3
*1474 FILLER_48_41
*1475 FILLER_48_53
*1476 FILLER_48_65
*1477 FILLER_48_77
*1478 FILLER_48_83
*1479 FILLER_48_85
*1480 FILLER_48_97
*1481 FILLER_49_105
*1482 FILLER_49_111
*1483 FILLER_49_113
*1484 FILLER_49_125
*1485 FILLER_49_137
*1486 FILLER_49_149
*1487 FILLER_49_15
*1488 FILLER_49_161
*1489 FILLER_49_167
*1490 FILLER_49_169
*1491 FILLER_49_181
*1492 FILLER_49_193
*1493 FILLER_49_205
*1494 FILLER_49_217
*1495 FILLER_49_223
*1496 FILLER_49_225
*1497 FILLER_49_237
*1498 FILLER_49_249
*1499 FILLER_49_261
*1500 FILLER_49_27
*1501 FILLER_49_273
*1502 FILLER_49_279
*1503 FILLER_49_281
*1504 FILLER_49_293
*1505 FILLER_49_3
*1506 FILLER_49_39
*1507 FILLER_49_51
*1508 FILLER_49_55
*1509 FILLER_49_57
*1510 FILLER_49_69
*1511 FILLER_49_81
*1512 FILLER_49_93
*1513 FILLER_4_111
*1514 FILLER_4_117
*1515 FILLER_4_124
*1516 FILLER_4_136
*1517 FILLER_4_141
*1518 FILLER_4_153
*1519 FILLER_4_165
*1520 FILLER_4_177
*1521 FILLER_4_189
*1522 FILLER_4_19
*1523 FILLER_4_195
*1524 FILLER_4_197
*1525 FILLER_4_209
*1526 FILLER_4_221
*1527 FILLER_4_233
*1528 FILLER_4_245
*1529 FILLER_4_251
*1530 FILLER_4_253
*1531 FILLER_4_265
*1532 FILLER_4_27
*1533 FILLER_4_277
*1534 FILLER_4_289
*1535 FILLER_4_29
*1536 FILLER_4_297
*1537 FILLER_4_53
*1538 FILLER_4_65
*1539 FILLER_4_77
*1540 FILLER_4_83
*1541 FILLER_4_88
*1542 FILLER_4_99
*1543 FILLER_50_109
*1544 FILLER_50_121
*1545 FILLER_50_133
*1546 FILLER_50_139
*1547 FILLER_50_141
*1548 FILLER_50_15
*1549 FILLER_50_153
*1550 FILLER_50_165
*1551 FILLER_50_177
*1552 FILLER_50_189
*1553 FILLER_50_195
*1554 FILLER_50_197
*1555 FILLER_50_209
*1556 FILLER_50_221
*1557 FILLER_50_233
*1558 FILLER_50_245
*1559 FILLER_50_251
*1560 FILLER_50_253
*1561 FILLER_50_265
*1562 FILLER_50_27
*1563 FILLER_50_277
*1564 FILLER_50_289
*1565 FILLER_50_29
*1566 FILLER_50_297
*1567 FILLER_50_3
*1568 FILLER_50_41
*1569 FILLER_50_53
*1570 FILLER_50_65
*1571 FILLER_50_77
*1572 FILLER_50_83
*1573 FILLER_50_85
*1574 FILLER_50_97
*1575 FILLER_51_105
*1576 FILLER_51_111
*1577 FILLER_51_113
*1578 FILLER_51_125
*1579 FILLER_51_137
*1580 FILLER_51_149
*1581 FILLER_51_15
*1582 FILLER_51_161
*1583 FILLER_51_167
*1584 FILLER_51_169
*1585 FILLER_51_181
*1586 FILLER_51_193
*1587 FILLER_51_205
*1588 FILLER_51_217
*1589 FILLER_51_223
*1590 FILLER_51_225
*1591 FILLER_51_237
*1592 FILLER_51_249
*1593 FILLER_51_261
*1594 FILLER_51_27
*1595 FILLER_51_273
*1596 FILLER_51_279
*1597 FILLER_51_281
*1598 FILLER_51_293
*1599 FILLER_51_3
*1600 FILLER_51_39
*1601 FILLER_51_51
*1602 FILLER_51_55
*1603 FILLER_51_57
*1604 FILLER_51_69
*1605 FILLER_51_81
*1606 FILLER_51_93