*SPEF "ieee 1481-1999"
*DESIGN "shan1293_2bitalu"
*DATE "11:11:11 Fri 11 11, 1111"
*VENDOR "OpenRCX"
*PROGRAM "Parallel Extraction"
*VERSION "1.0"
*DESIGN_FLOW "NAME_SCOPE LOCAL" "PIN_CAP NONE"
*DIVIDER /
*DELIMITER :
*BUS_DELIMITER []
*T_UNIT 1 NS
*C_UNIT 1 PF
*R_UNIT 1 OHM
*L_UNIT 1 HENRY

*NAME_MAP
*1 io_in[0]
*2 io_in[1]
*3 io_in[2]
*4 io_in[3]
*5 io_in[4]
*6 io_in[5]
*7 io_in[6]
*8 io_in[7]
*9 io_out[0]
*10 io_out[1]
*11 io_out[2]
*12 io_out[3]
*13 io_out[4]
*14 io_out[5]
*15 io_out[6]
*16 io_out[7]
*19 _000_
*20 _001_
*21 _002_
*22 _003_
*23 _004_
*24 _005_
*25 _006_
*26 _007_
*27 _008_
*28 _009_
*29 _010_
*30 _011_
*31 _012_
*32 _013_
*33 _014_
*34 _015_
*35 _016_
*36 _017_
*37 _018_
*38 _019_
*39 _020_
*40 _021_
*41 _022_
*42 _023_
*43 _024_
*44 _025_
*45 _026_
*46 _027_
*47 _028_
*48 _029_
*49 _030_
*50 _031_
*51 _032_
*52 _033_
*53 _034_
*54 _035_
*55 _036_
*56 _037_
*57 _038_
*58 _039_
*59 _040_
*60 _041_
*61 _042_
*62 _043_
*63 _044_
*64 _045_
*65 _046_
*66 _047_
*67 _048_
*68 _049_
*69 _050_
*70 _051_
*71 _052_
*72 _053_
*73 _054_
*74 _055_
*75 _056_
*76 _057_
*77 _058_
*78 _059_
*79 _060_
*80 _061_
*81 _062_
*82 _063_
*83 _064_
*84 _065_
*85 _066_
*86 _067_
*87 _068_
*88 _069_
*89 _070_
*90 _071_
*91 _072_
*92 _073_
*93 _074_
*94 _075_
*95 _076_
*96 _077_
*97 _078_
*98 _079_
*99 _080_
*100 _081_
*101 _082_
*102 _083_
*103 _084_
*104 _085_
*105 _086_
*106 _087_
*107 _088_
*108 _089_
*109 _090_
*110 _091_
*111 _092_
*112 _093_
*113 _094_
*114 _095_
*115 _096_
*116 _097_
*117 _098_
*118 clknet_0__015_
*119 clknet_0__016_
*120 clknet_0__048_
*121 clknet_0__051_
*122 clknet_0__054_
*123 clknet_0__055_
*124 clknet_0__061_
*125 clknet_0__062_
*126 clknet_0__064_
*127 clknet_0__065_
*128 clknet_0__067_
*129 clknet_0__068_
*130 clknet_0__069_
*131 clknet_0__074_
*132 clknet_0__079_
*133 clknet_0__086_
*134 clknet_0__090_
*135 clknet_0__094_
*136 clknet_0_io_in[0]
*137 clknet_0_io_out[7]
*138 clknet_1_0__leaf__015_
*139 clknet_1_0__leaf__016_
*140 clknet_1_0__leaf__048_
*141 clknet_1_0__leaf__051_
*142 clknet_1_0__leaf__054_
*143 clknet_1_0__leaf__055_
*144 clknet_1_0__leaf__061_
*145 clknet_1_0__leaf__062_
*146 clknet_1_0__leaf__064_
*147 clknet_1_0__leaf__065_
*148 clknet_1_0__leaf__067_
*149 clknet_1_0__leaf__068_
*150 clknet_1_0__leaf__069_
*151 clknet_1_0__leaf__074_
*152 clknet_1_0__leaf__079_
*153 clknet_1_0__leaf__086_
*154 clknet_1_0__leaf__090_
*155 clknet_1_0__leaf__094_
*156 clknet_1_0__leaf_io_in[0]
*157 clknet_1_0__leaf_io_out[7]
*158 clknet_1_1__leaf__015_
*159 clknet_1_1__leaf__016_
*160 clknet_1_1__leaf__048_
*161 clknet_1_1__leaf__051_
*162 clknet_1_1__leaf__054_
*163 clknet_1_1__leaf__055_
*164 clknet_1_1__leaf__061_
*165 clknet_1_1__leaf__062_
*166 clknet_1_1__leaf__064_
*167 clknet_1_1__leaf__065_
*168 clknet_1_1__leaf__067_
*169 clknet_1_1__leaf__068_
*170 clknet_1_1__leaf__069_
*171 clknet_1_1__leaf__074_
*172 clknet_1_1__leaf__079_
*173 clknet_1_1__leaf__086_
*174 clknet_1_1__leaf__090_
*175 clknet_1_1__leaf__094_
*176 clknet_1_1__leaf_io_in[0]
*177 clknet_1_1__leaf_io_out[7]
*178 net1
*179 net2
*180 net3
*181 net4
*182 net5
*183 net6
*184 net7
*185 FILLER_0_109
*186 FILLER_0_113
*187 FILLER_0_125
*188 FILLER_0_137
*189 FILLER_0_141
*190 FILLER_0_15
*191 FILLER_0_153
*192 FILLER_0_165
*193 FILLER_0_169
*194 FILLER_0_181
*195 FILLER_0_193
*196 FILLER_0_197
*197 FILLER_0_209
*198 FILLER_0_221
*199 FILLER_0_225
*200 FILLER_0_237
*201 FILLER_0_249
*202 FILLER_0_253
*203 FILLER_0_265
*204 FILLER_0_27
*205 FILLER_0_277
*206 FILLER_0_281
*207 FILLER_0_29
*208 FILLER_0_293
*209 FILLER_0_3
*210 FILLER_0_41
*211 FILLER_0_53
*212 FILLER_0_57
*213 FILLER_0_69
*214 FILLER_0_81
*215 FILLER_0_85
*216 FILLER_0_97
*217 FILLER_10_109
*218 FILLER_10_121
*219 FILLER_10_133
*220 FILLER_10_139
*221 FILLER_10_141
*222 FILLER_10_15
*223 FILLER_10_153
*224 FILLER_10_165
*225 FILLER_10_177
*226 FILLER_10_189
*227 FILLER_10_195
*228 FILLER_10_197
*229 FILLER_10_209
*230 FILLER_10_221
*231 FILLER_10_233
*232 FILLER_10_245
*233 FILLER_10_251
*234 FILLER_10_253
*235 FILLER_10_265
*236 FILLER_10_27
*237 FILLER_10_277
*238 FILLER_10_289
*239 FILLER_10_29
*240 FILLER_10_297
*241 FILLER_10_3
*242 FILLER_10_41
*243 FILLER_10_53
*244 FILLER_10_65
*245 FILLER_10_77
*246 FILLER_10_83
*247 FILLER_10_85
*248 FILLER_10_97
*249 FILLER_11_105
*250 FILLER_11_111
*251 FILLER_11_113
*252 FILLER_11_125
*253 FILLER_11_137
*254 FILLER_11_149
*255 FILLER_11_15
*256 FILLER_11_161
*257 FILLER_11_167
*258 FILLER_11_169
*259 FILLER_11_181
*260 FILLER_11_193
*261 FILLER_11_205
*262 FILLER_11_217
*263 FILLER_11_223
*264 FILLER_11_225
*265 FILLER_11_237
*266 FILLER_11_249
*267 FILLER_11_261
*268 FILLER_11_27
*269 FILLER_11_273
*270 FILLER_11_279
*271 FILLER_11_281
*272 FILLER_11_293
*273 FILLER_11_3
*274 FILLER_11_39
*275 FILLER_11_51
*276 FILLER_11_55
*277 FILLER_11_57
*278 FILLER_11_69
*279 FILLER_11_81
*280 FILLER_11_93
*281 FILLER_12_109
*282 FILLER_12_121
*283 FILLER_12_13
*284 FILLER_12_133
*285 FILLER_12_139
*286 FILLER_12_141
*287 FILLER_12_153
*288 FILLER_12_165
*289 FILLER_12_177
*290 FILLER_12_189
*291 FILLER_12_195
*292 FILLER_12_197
*293 FILLER_12_209
*294 FILLER_12_221
*295 FILLER_12_233
*296 FILLER_12_245
*297 FILLER_12_25
*298 FILLER_12_251
*299 FILLER_12_253
*300 FILLER_12_265
*301 FILLER_12_277
*302 FILLER_12_289
*303 FILLER_12_29
*304 FILLER_12_297
*305 FILLER_12_41
*306 FILLER_12_53
*307 FILLER_12_65
*308 FILLER_12_77
*309 FILLER_12_83
*310 FILLER_12_85
*311 FILLER_12_97
*312 FILLER_13_105
*313 FILLER_13_111
*314 FILLER_13_113
*315 FILLER_13_125
*316 FILLER_13_137
*317 FILLER_13_149
*318 FILLER_13_15
*319 FILLER_13_161
*320 FILLER_13_167
*321 FILLER_13_169
*322 FILLER_13_181
*323 FILLER_13_193
*324 FILLER_13_205
*325 FILLER_13_217
*326 FILLER_13_223
*327 FILLER_13_225
*328 FILLER_13_237
*329 FILLER_13_249
*330 FILLER_13_261
*331 FILLER_13_27
*332 FILLER_13_273
*333 FILLER_13_279
*334 FILLER_13_281
*335 FILLER_13_293
*336 FILLER_13_3
*337 FILLER_13_39
*338 FILLER_13_51
*339 FILLER_13_55
*340 FILLER_13_57
*341 FILLER_13_69
*342 FILLER_13_81
*343 FILLER_13_93
*344 FILLER_14_109
*345 FILLER_14_121
*346 FILLER_14_133
*347 FILLER_14_139
*348 FILLER_14_141
*349 FILLER_14_15
*350 FILLER_14_153
*351 FILLER_14_165
*352 FILLER_14_177
*353 FILLER_14_189
*354 FILLER_14_195
*355 FILLER_14_197
*356 FILLER_14_209
*357 FILLER_14_221
*358 FILLER_14_233
*359 FILLER_14_245
*360 FILLER_14_251
*361 FILLER_14_253
*362 FILLER_14_265
*363 FILLER_14_27
*364 FILLER_14_277
*365 FILLER_14_289
*366 FILLER_14_29
*367 FILLER_14_297
*368 FILLER_14_3
*369 FILLER_14_41
*370 FILLER_14_53
*371 FILLER_14_65
*372 FILLER_14_77
*373 FILLER_14_83
*374 FILLER_14_85
*375 FILLER_14_97
*376 FILLER_15_105
*377 FILLER_15_111
*378 FILLER_15_113
*379 FILLER_15_125
*380 FILLER_15_137
*381 FILLER_15_149
*382 FILLER_15_161
*383 FILLER_15_167
*384 FILLER_15_169
*385 FILLER_15_181
*386 FILLER_15_19
*387 FILLER_15_193
*388 FILLER_15_205
*389 FILLER_15_217
*390 FILLER_15_223
*391 FILLER_15_225
*392 FILLER_15_237
*393 FILLER_15_249
*394 FILLER_15_261
*395 FILLER_15_27
*396 FILLER_15_273
*397 FILLER_15_279
*398 FILLER_15_281
*399 FILLER_15_293
*400 FILLER_15_3
*401 FILLER_15_39
*402 FILLER_15_51
*403 FILLER_15_55
*404 FILLER_15_57
*405 FILLER_15_69
*406 FILLER_15_81
*407 FILLER_15_93
*408 FILLER_16_109
*409 FILLER_16_121
*410 FILLER_16_133
*411 FILLER_16_139
*412 FILLER_16_14
*413 FILLER_16_141
*414 FILLER_16_153
*415 FILLER_16_165
*416 FILLER_16_177
*417 FILLER_16_189
*418 FILLER_16_195
*419 FILLER_16_197
*420 FILLER_16_209
*421 FILLER_16_22
*422 FILLER_16_221
*423 FILLER_16_233
*424 FILLER_16_245
*425 FILLER_16_251
*426 FILLER_16_253
*427 FILLER_16_265
*428 FILLER_16_277
*429 FILLER_16_289
*430 FILLER_16_29
*431 FILLER_16_297
*432 FILLER_16_41
*433 FILLER_16_53
*434 FILLER_16_6
*435 FILLER_16_65
*436 FILLER_16_77
*437 FILLER_16_83
*438 FILLER_16_85
*439 FILLER_16_97
*440 FILLER_17_105
*441 FILLER_17_111
*442 FILLER_17_113
*443 FILLER_17_125
*444 FILLER_17_137
*445 FILLER_17_149
*446 FILLER_17_15
*447 FILLER_17_161
*448 FILLER_17_167
*449 FILLER_17_169
*450 FILLER_17_181
*451 FILLER_17_193
*452 FILLER_17_205
*453 FILLER_17_217
*454 FILLER_17_223
*455 FILLER_17_225
*456 FILLER_17_237
*457 FILLER_17_249
*458 FILLER_17_261
*459 FILLER_17_27
*460 FILLER_17_273
*461 FILLER_17_279
*462 FILLER_17_281
*463 FILLER_17_293
*464 FILLER_17_3
*465 FILLER_17_39
*466 FILLER_17_51
*467 FILLER_17_55
*468 FILLER_17_57
*469 FILLER_17_69
*470 FILLER_17_81
*471 FILLER_17_93
*472 FILLER_18_109
*473 FILLER_18_121
*474 FILLER_18_133
*475 FILLER_18_139
*476 FILLER_18_141
*477 FILLER_18_153
*478 FILLER_18_165
*479 FILLER_18_177
*480 FILLER_18_18
*481 FILLER_18_189
*482 FILLER_18_195
*483 FILLER_18_197
*484 FILLER_18_209
*485 FILLER_18_221
*486 FILLER_18_233
*487 FILLER_18_245
*488 FILLER_18_251
*489 FILLER_18_253
*490 FILLER_18_26
*491 FILLER_18_265
*492 FILLER_18_277
*493 FILLER_18_289
*494 FILLER_18_29
*495 FILLER_18_297
*496 FILLER_18_41
*497 FILLER_18_53
*498 FILLER_18_6
*499 FILLER_18_65
*500 FILLER_18_77
*501 FILLER_18_83
*502 FILLER_18_85
*503 FILLER_18_97
*504 FILLER_19_102
*505 FILLER_19_11
*506 FILLER_19_110
*507 FILLER_19_113
*508 FILLER_19_125
*509 FILLER_19_137
*510 FILLER_19_149
*511 FILLER_19_161
*512 FILLER_19_167
*513 FILLER_19_169
*514 FILLER_19_181
*515 FILLER_19_193
*516 FILLER_19_205
*517 FILLER_19_217
*518 FILLER_19_223
*519 FILLER_19_225
*520 FILLER_19_23
*521 FILLER_19_237
*522 FILLER_19_249
*523 FILLER_19_261
*524 FILLER_19_273
*525 FILLER_19_279
*526 FILLER_19_28
*527 FILLER_19_281
*528 FILLER_19_293
*529 FILLER_19_3
*530 FILLER_19_32
*531 FILLER_19_36
*532 FILLER_19_48
*533 FILLER_19_66
*534 FILLER_19_78
*535 FILLER_19_90
*536 FILLER_1_105
*537 FILLER_1_111
*538 FILLER_1_113
*539 FILLER_1_125
*540 FILLER_1_137
*541 FILLER_1_149
*542 FILLER_1_15
*543 FILLER_1_161
*544 FILLER_1_167
*545 FILLER_1_169
*546 FILLER_1_181
*547 FILLER_1_193
*548 FILLER_1_205
*549 FILLER_1_217
*550 FILLER_1_223
*551 FILLER_1_225
*552 FILLER_1_237
*553 FILLER_1_249
*554 FILLER_1_261
*555 FILLER_1_27
*556 FILLER_1_273
*557 FILLER_1_279
*558 FILLER_1_281
*559 FILLER_1_293
*560 FILLER_1_3
*561 FILLER_1_39
*562 FILLER_1_51
*563 FILLER_1_55
*564 FILLER_1_57
*565 FILLER_1_69
*566 FILLER_1_81
*567 FILLER_1_93
*568 FILLER_20_109
*569 FILLER_20_121
*570 FILLER_20_133
*571 FILLER_20_139
*572 FILLER_20_141
*573 FILLER_20_15
*574 FILLER_20_153
*575 FILLER_20_165
*576 FILLER_20_177
*577 FILLER_20_189
*578 FILLER_20_19
*579 FILLER_20_195
*580 FILLER_20_197
*581 FILLER_20_209
*582 FILLER_20_221
*583 FILLER_20_233
*584 FILLER_20_24
*585 FILLER_20_245
*586 FILLER_20_251
*587 FILLER_20_253
*588 FILLER_20_265
*589 FILLER_20_277
*590 FILLER_20_289
*591 FILLER_20_297
*592 FILLER_20_3
*593 FILLER_20_34
*594 FILLER_20_43
*595 FILLER_20_50
*596 FILLER_20_58
*597 FILLER_20_63
*598 FILLER_20_7
*599 FILLER_20_75
*600 FILLER_20_83
*601 FILLER_20_85
*602 FILLER_20_97
*603 FILLER_21_10
*604 FILLER_21_104
*605 FILLER_21_113
*606 FILLER_21_125
*607 FILLER_21_137
*608 FILLER_21_149
*609 FILLER_21_161
*610 FILLER_21_167
*611 FILLER_21_169
*612 FILLER_21_181
*613 FILLER_21_193
*614 FILLER_21_205
*615 FILLER_21_217
*616 FILLER_21_223
*617 FILLER_21_225
*618 FILLER_21_237
*619 FILLER_21_249
*620 FILLER_21_261
*621 FILLER_21_273
*622 FILLER_21_279
*623 FILLER_21_281
*624 FILLER_21_293
*625 FILLER_21_36
*626 FILLER_21_44
*627 FILLER_21_52
*628 FILLER_21_57
*629 FILLER_21_68
*630 FILLER_21_80
*631 FILLER_21_92
*632 FILLER_22_109
*633 FILLER_22_121
*634 FILLER_22_133
*635 FILLER_22_139
*636 FILLER_22_141
*637 FILLER_22_153
*638 FILLER_22_165
*639 FILLER_22_177
*640 FILLER_22_189
*641 FILLER_22_195
*642 FILLER_22_197
*643 FILLER_22_209
*644 FILLER_22_221
*645 FILLER_22_233
*646 FILLER_22_24
*647 FILLER_22_245
*648 FILLER_22_251
*649 FILLER_22_253
*650 FILLER_22_265
*651 FILLER_22_277
*652 FILLER_22_289
*653 FILLER_22_29
*654 FILLER_22_297
*655 FILLER_22_3
*656 FILLER_22_41
*657 FILLER_22_51
*658 FILLER_22_59
*659 FILLER_22_74
*660 FILLER_22_82
*661 FILLER_22_85
*662 FILLER_22_97
*663 FILLER_23_108
*664 FILLER_23_113
*665 FILLER_23_125
*666 FILLER_23_137
*667 FILLER_23_149
*668 FILLER_23_161
*669 FILLER_23_167
*670 FILLER_23_169
*671 FILLER_23_181
*672 FILLER_23_193
*673 FILLER_23_205
*674 FILLER_23_217
*675 FILLER_23_223
*676 FILLER_23_225
*677 FILLER_23_237
*678 FILLER_23_249
*679 FILLER_23_261
*680 FILLER_23_27
*681 FILLER_23_273
*682 FILLER_23_279
*683 FILLER_23_281
*684 FILLER_23_293
*685 FILLER_23_3
*686 FILLER_23_41
*687 FILLER_23_52
*688 FILLER_23_57
*689 FILLER_23_72
*690 FILLER_23_84
*691 FILLER_23_96
*692 FILLER_24_109
*693 FILLER_24_121
*694 FILLER_24_133
*695 FILLER_24_139
*696 FILLER_24_141
*697 FILLER_24_153
*698 FILLER_24_165
*699 FILLER_24_177
*700 FILLER_24_189
*701 FILLER_24_195
*702 FILLER_24_197
*703 FILLER_24_209
*704 FILLER_24_221
*705 FILLER_24_233
*706 FILLER_24_24
*707 FILLER_24_245
*708 FILLER_24_251
*709 FILLER_24_253
*710 FILLER_24_265
*711 FILLER_24_277
*712 FILLER_24_289
*713 FILLER_24_29
*714 FILLER_24_297
*715 FILLER_24_3
*716 FILLER_24_53
*717 FILLER_24_64
*718 FILLER_24_72
*719 FILLER_24_79
*720 FILLER_24_83
*721 FILLER_24_85
*722 FILLER_24_97
*723 FILLER_25_100
*724 FILLER_25_113
*725 FILLER_25_12
*726 FILLER_25_125
*727 FILLER_25_137
*728 FILLER_25_149
*729 FILLER_25_161
*730 FILLER_25_167
*731 FILLER_25_169
*732 FILLER_25_181
*733 FILLER_25_193
*734 FILLER_25_205
*735 FILLER_25_217
*736 FILLER_25_223
*737 FILLER_25_225
*738 FILLER_25_237
*739 FILLER_25_249
*740 FILLER_25_261
*741 FILLER_25_273
*742 FILLER_25_279
*743 FILLER_25_281
*744 FILLER_25_293
*745 FILLER_25_3
*746 FILLER_25_36
*747 FILLER_25_48
*748 FILLER_25_64
*749 FILLER_25_74
*750 FILLER_25_82
*751 FILLER_25_88
*752 FILLER_26_109
*753 FILLER_26_121
*754 FILLER_26_133
*755 FILLER_26_139
*756 FILLER_26_141
*757 FILLER_26_153
*758 FILLER_26_165
*759 FILLER_26_177
*760 FILLER_26_189
*761 FILLER_26_195
*762 FILLER_26_197
*763 FILLER_26_209
*764 FILLER_26_221
*765 FILLER_26_233
*766 FILLER_26_24
*767 FILLER_26_245
*768 FILLER_26_251
*769 FILLER_26_253
*770 FILLER_26_265
*771 FILLER_26_277
*772 FILLER_26_289
*773 FILLER_26_297
*774 FILLER_26_3
*775 FILLER_26_34
*776 FILLER_26_38
*777 FILLER_26_61
*778 FILLER_26_72
*779 FILLER_26_79
*780 FILLER_26_83
*781 FILLER_26_85
*782 FILLER_26_97
*783 FILLER_27_101
*784 FILLER_27_109
*785 FILLER_27_113
*786 FILLER_27_125
*787 FILLER_27_137
*788 FILLER_27_149
*789 FILLER_27_161
*790 FILLER_27_167
*791 FILLER_27_169
*792 FILLER_27_181
*793 FILLER_27_193
*794 FILLER_27_205
*795 FILLER_27_217
*796 FILLER_27_223
*797 FILLER_27_225
*798 FILLER_27_237
*799 FILLER_27_249
*800 FILLER_27_261
*801 FILLER_27_273
*802 FILLER_27_279
*803 FILLER_27_28
*804 FILLER_27_281
*805 FILLER_27_293
*806 FILLER_27_3
*807 FILLER_27_52
*808 FILLER_27_57
*809 FILLER_27_61
*810 FILLER_27_7
*811 FILLER_27_72
*812 FILLER_27_82
*813 FILLER_27_89
*814 FILLER_28_108
*815 FILLER_28_120
*816 FILLER_28_132
*817 FILLER_28_141
*818 FILLER_28_153
*819 FILLER_28_165
*820 FILLER_28_177
*821 FILLER_28_189
*822 FILLER_28_195
*823 FILLER_28_197
*824 FILLER_28_209
*825 FILLER_28_221
*826 FILLER_28_233
*827 FILLER_28_24
*828 FILLER_28_245
*829 FILLER_28_251
*830 FILLER_28_253
*831 FILLER_28_265
*832 FILLER_28_277
*833 FILLER_28_289
*834 FILLER_28_29
*835 FILLER_28_297
*836 FILLER_28_3
*837 FILLER_28_41
*838 FILLER_28_65
*839 FILLER_28_71
*840 FILLER_28_79
*841 FILLER_28_83
*842 FILLER_28_89
*843 FILLER_28_96
*844 FILLER_29_111
*845 FILLER_29_113
*846 FILLER_29_125
*847 FILLER_29_13
*848 FILLER_29_137
*849 FILLER_29_149
*850 FILLER_29_161
*851 FILLER_29_167
*852 FILLER_29_169
*853 FILLER_29_181
*854 FILLER_29_193
*855 FILLER_29_205
*856 FILLER_29_217
*857 FILLER_29_223
*858 FILLER_29_225
*859 FILLER_29_237
*860 FILLER_29_249
*861 FILLER_29_26
*862 FILLER_29_261
*863 FILLER_29_273
*864 FILLER_29_279
*865 FILLER_29_281
*866 FILLER_29_293
*867 FILLER_29_3
*868 FILLER_29_50
*869 FILLER_29_57
*870 FILLER_29_81
*871 FILLER_29_91
*872 FILLER_29_99
*873 FILLER_2_109
*874 FILLER_2_121
*875 FILLER_2_133
*876 FILLER_2_139
*877 FILLER_2_141
*878 FILLER_2_15
*879 FILLER_2_153
*880 FILLER_2_165
*881 FILLER_2_177
*882 FILLER_2_189
*883 FILLER_2_195
*884 FILLER_2_197
*885 FILLER_2_209
*886 FILLER_2_221
*887 FILLER_2_233
*888 FILLER_2_245
*889 FILLER_2_251
*890 FILLER_2_253
*891 FILLER_2_265
*892 FILLER_2_27
*893 FILLER_2_277
*894 FILLER_2_289
*895 FILLER_2_29
*896 FILLER_2_297
*897 FILLER_2_3
*898 FILLER_2_41
*899 FILLER_2_53
*900 FILLER_2_65
*901 FILLER_2_77
*902 FILLER_2_83
*903 FILLER_2_85
*904 FILLER_2_97
*905 FILLER_30_102
*906 FILLER_30_114
*907 FILLER_30_126
*908 FILLER_30_138
*909 FILLER_30_141
*910 FILLER_30_153
*911 FILLER_30_165
*912 FILLER_30_177
*913 FILLER_30_189
*914 FILLER_30_195
*915 FILLER_30_197
*916 FILLER_30_209
*917 FILLER_30_221
*918 FILLER_30_233
*919 FILLER_30_24
*920 FILLER_30_245
*921 FILLER_30_251
*922 FILLER_30_253
*923 FILLER_30_265
*924 FILLER_30_277
*925 FILLER_30_289
*926 FILLER_30_29
*927 FILLER_30_297
*928 FILLER_30_3
*929 FILLER_30_41
*930 FILLER_30_65
*931 FILLER_30_77
*932 FILLER_30_83
*933 FILLER_30_92
*934 FILLER_31_103
*935 FILLER_31_111
*936 FILLER_31_113
*937 FILLER_31_125
*938 FILLER_31_137
*939 FILLER_31_149
*940 FILLER_31_161
*941 FILLER_31_167
*942 FILLER_31_169
*943 FILLER_31_181
*944 FILLER_31_193
*945 FILLER_31_205
*946 FILLER_31_217
*947 FILLER_31_223
*948 FILLER_31_225
*949 FILLER_31_237
*950 FILLER_31_249
*951 FILLER_31_261
*952 FILLER_31_273
*953 FILLER_31_279
*954 FILLER_31_28
*955 FILLER_31_281
*956 FILLER_31_293
*957 FILLER_31_3
*958 FILLER_31_52
*959 FILLER_31_57
*960 FILLER_31_7
*961 FILLER_31_81
*962 FILLER_31_92
*963 FILLER_32_103
*964 FILLER_32_113
*965 FILLER_32_125
*966 FILLER_32_137
*967 FILLER_32_141
*968 FILLER_32_153
*969 FILLER_32_165
*970 FILLER_32_177
*971 FILLER_32_189
*972 FILLER_32_195
*973 FILLER_32_197
*974 FILLER_32_209
*975 FILLER_32_221
*976 FILLER_32_233
*977 FILLER_32_24
*978 FILLER_32_245
*979 FILLER_32_251
*980 FILLER_32_253
*981 FILLER_32_265
*982 FILLER_32_277
*983 FILLER_32_289
*984 FILLER_32_297
*985 FILLER_32_3
*986 FILLER_32_41
*987 FILLER_32_65
*988 FILLER_32_79
*989 FILLER_32_83
*990 FILLER_32_92
*991 FILLER_33_102
*992 FILLER_33_110
*993 FILLER_33_120
*994 FILLER_33_132
*995 FILLER_33_144
*996 FILLER_33_156
*997 FILLER_33_169
*998 FILLER_33_181
*999 FILLER_33_193
*1000 FILLER_33_205
*1001 FILLER_33_217
*1002 FILLER_33_223
*1003 FILLER_33_225
*1004 FILLER_33_237
*1005 FILLER_33_249
*1006 FILLER_33_261
*1007 FILLER_33_273
*1008 FILLER_33_279
*1009 FILLER_33_28
*1010 FILLER_33_281
*1011 FILLER_33_293
*1012 FILLER_33_3
*1013 FILLER_33_52
*1014 FILLER_33_57
*1015 FILLER_33_7
*1016 FILLER_33_81
*1017 FILLER_33_88
*1018 FILLER_33_94
*1019 FILLER_34_106
*1020 FILLER_34_117
*1021 FILLER_34_129
*1022 FILLER_34_137
*1023 FILLER_34_141
*1024 FILLER_34_153
*1025 FILLER_34_165
*1026 FILLER_34_177
*1027 FILLER_34_189
*1028 FILLER_34_195
*1029 FILLER_34_197
*1030 FILLER_34_209
*1031 FILLER_34_221
*1032 FILLER_34_233
*1033 FILLER_34_24
*1034 FILLER_34_245
*1035 FILLER_34_251
*1036 FILLER_34_253
*1037 FILLER_34_265
*1038 FILLER_34_277
*1039 FILLER_34_289
*1040 FILLER_34_297
*1041 FILLER_34_3
*1042 FILLER_34_32
*1043 FILLER_34_56
*1044 FILLER_34_80
*1045 FILLER_34_85
*1046 FILLER_34_95
*1047 FILLER_35_105
*1048 FILLER_35_111
*1049 FILLER_35_119
*1050 FILLER_35_131
*1051 FILLER_35_143
*1052 FILLER_35_155
*1053 FILLER_35_167
*1054 FILLER_35_169
*1055 FILLER_35_181
*1056 FILLER_35_193
*1057 FILLER_35_205
*1058 FILLER_35_217
*1059 FILLER_35_223
*1060 FILLER_35_225
*1061 FILLER_35_237
*1062 FILLER_35_249
*1063 FILLER_35_261
*1064 FILLER_35_273
*1065 FILLER_35_279
*1066 FILLER_35_28
*1067 FILLER_35_281
*1068 FILLER_35_293
*1069 FILLER_35_3
*1070 FILLER_35_52
*1071 FILLER_35_57
*1072 FILLER_35_7
*1073 FILLER_35_81
*1074 FILLER_36_109
*1075 FILLER_36_121
*1076 FILLER_36_133
*1077 FILLER_36_139
*1078 FILLER_36_141
*1079 FILLER_36_153
*1080 FILLER_36_165
*1081 FILLER_36_177
*1082 FILLER_36_189
*1083 FILLER_36_195
*1084 FILLER_36_197
*1085 FILLER_36_209
*1086 FILLER_36_221
*1087 FILLER_36_233
*1088 FILLER_36_24
*1089 FILLER_36_245
*1090 FILLER_36_251
*1091 FILLER_36_253
*1092 FILLER_36_265
*1093 FILLER_36_277
*1094 FILLER_36_289
*1095 FILLER_36_297
*1096 FILLER_36_3
*1097 FILLER_36_39
*1098 FILLER_36_65
*1099 FILLER_36_71
*1100 FILLER_36_80
*1101 FILLER_36_85
*1102 FILLER_37_105
*1103 FILLER_37_111
*1104 FILLER_37_12
*1105 FILLER_37_120
*1106 FILLER_37_132
*1107 FILLER_37_144
*1108 FILLER_37_156
*1109 FILLER_37_169
*1110 FILLER_37_181
*1111 FILLER_37_193
*1112 FILLER_37_205
*1113 FILLER_37_217
*1114 FILLER_37_223
*1115 FILLER_37_225
*1116 FILLER_37_23
*1117 FILLER_37_237
*1118 FILLER_37_249
*1119 FILLER_37_261
*1120 FILLER_37_273
*1121 FILLER_37_279
*1122 FILLER_37_281
*1123 FILLER_37_293
*1124 FILLER_37_3
*1125 FILLER_37_47
*1126 FILLER_37_55
*1127 FILLER_37_57
*1128 FILLER_37_8
*1129 FILLER_37_81
*1130 FILLER_38_104
*1131 FILLER_38_116
*1132 FILLER_38_128
*1133 FILLER_38_141
*1134 FILLER_38_153
*1135 FILLER_38_165
*1136 FILLER_38_177
*1137 FILLER_38_189
*1138 FILLER_38_195
*1139 FILLER_38_197
*1140 FILLER_38_209
*1141 FILLER_38_221
*1142 FILLER_38_233
*1143 FILLER_38_24
*1144 FILLER_38_245
*1145 FILLER_38_251
*1146 FILLER_38_253
*1147 FILLER_38_265
*1148 FILLER_38_277
*1149 FILLER_38_289
*1150 FILLER_38_29
*1151 FILLER_38_297
*1152 FILLER_38_3
*1153 FILLER_38_41
*1154 FILLER_38_65
*1155 FILLER_38_77
*1156 FILLER_38_83
*1157 FILLER_38_93
*1158 FILLER_39_103
*1159 FILLER_39_111
*1160 FILLER_39_116
*1161 FILLER_39_128
*1162 FILLER_39_140
*1163 FILLER_39_152
*1164 FILLER_39_164
*1165 FILLER_39_169
*1166 FILLER_39_181
*1167 FILLER_39_193
*1168 FILLER_39_205
*1169 FILLER_39_217
*1170 FILLER_39_223
*1171 FILLER_39_225
*1172 FILLER_39_237
*1173 FILLER_39_249
*1174 FILLER_39_261
*1175 FILLER_39_27
*1176 FILLER_39_273
*1177 FILLER_39_279
*1178 FILLER_39_281
*1179 FILLER_39_293
*1180 FILLER_39_3
*1181 FILLER_39_31
*1182 FILLER_39_52
*1183 FILLER_39_57
*1184 FILLER_39_81
*1185 FILLER_39_92
*1186 FILLER_3_105
*1187 FILLER_3_111
*1188 FILLER_3_113
*1189 FILLER_3_125
*1190 FILLER_3_137
*1191 FILLER_3_149
*1192 FILLER_3_15
*1193 FILLER_3_161
*1194 FILLER_3_167
*1195 FILLER_3_169
*1196 FILLER_3_181
*1197 FILLER_3_193
*1198 FILLER_3_205
*1199 FILLER_3_217
*1200 FILLER_3_223
*1201 FILLER_3_225
*1202 FILLER_3_237
*1203 FILLER_3_249
*1204 FILLER_3_261
*1205 FILLER_3_27
*1206 FILLER_3_273
*1207 FILLER_3_279
*1208 FILLER_3_281
*1209 FILLER_3_293
*1210 FILLER_3_3
*1211 FILLER_3_39
*1212 FILLER_3_51
*1213 FILLER_3_55
*1214 FILLER_3_57
*1215 FILLER_3_69
*1216 FILLER_3_81
*1217 FILLER_3_93
*1218 FILLER_40_103
*1219 FILLER_40_115
*1220 FILLER_40_127
*1221 FILLER_40_139
*1222 FILLER_40_141
*1223 FILLER_40_153
*1224 FILLER_40_165
*1225 FILLER_40_177
*1226 FILLER_40_189
*1227 FILLER_40_195
*1228 FILLER_40_197
*1229 FILLER_40_209
*1230 FILLER_40_221
*1231 FILLER_40_233
*1232 FILLER_40_24
*1233 FILLER_40_245
*1234 FILLER_40_251
*1235 FILLER_40_253
*1236 FILLER_40_265
*1237 FILLER_40_277
*1238 FILLER_40_289
*1239 FILLER_40_297
*1240 FILLER_40_3
*1241 FILLER_40_38
*1242 FILLER_40_45
*1243 FILLER_40_69
*1244 FILLER_40_80
*1245 FILLER_40_93
*1246 FILLER_41_102
*1247 FILLER_41_110
*1248 FILLER_41_113
*1249 FILLER_41_12
*1250 FILLER_41_125
*1251 FILLER_41_137
*1252 FILLER_41_149
*1253 FILLER_41_161
*1254 FILLER_41_167
*1255 FILLER_41_169
*1256 FILLER_41_181
*1257 FILLER_41_193
*1258 FILLER_41_205
*1259 FILLER_41_217
*1260 FILLER_41_223
*1261 FILLER_41_225
*1262 FILLER_41_237
*1263 FILLER_41_249
*1264 FILLER_41_261
*1265 FILLER_41_273
*1266 FILLER_41_279
*1267 FILLER_41_281
*1268 FILLER_41_293
*1269 FILLER_41_36
*1270 FILLER_41_49
*1271 FILLER_41_55
*1272 FILLER_41_57
*1273 FILLER_41_81
*1274 FILLER_41_93
*1275 FILLER_42_104
*1276 FILLER_42_116
*1277 FILLER_42_128
*1278 FILLER_42_141
*1279 FILLER_42_153
*1280 FILLER_42_165
*1281 FILLER_42_177
*1282 FILLER_42_189
*1283 FILLER_42_195
*1284 FILLER_42_197
*1285 FILLER_42_209
*1286 FILLER_42_221
*1287 FILLER_42_233
*1288 FILLER_42_24
*1289 FILLER_42_245
*1290 FILLER_42_251
*1291 FILLER_42_253
*1292 FILLER_42_265
*1293 FILLER_42_277
*1294 FILLER_42_289
*1295 FILLER_42_29
*1296 FILLER_42_297
*1297 FILLER_42_3
*1298 FILLER_42_53
*1299 FILLER_42_77
*1300 FILLER_42_83
*1301 FILLER_42_92
*1302 FILLER_43_102
*1303 FILLER_43_110
*1304 FILLER_43_113
*1305 FILLER_43_12
*1306 FILLER_43_125
*1307 FILLER_43_137
*1308 FILLER_43_149
*1309 FILLER_43_161
*1310 FILLER_43_167
*1311 FILLER_43_169
*1312 FILLER_43_181
*1313 FILLER_43_193
*1314 FILLER_43_205
*1315 FILLER_43_217
*1316 FILLER_43_223
*1317 FILLER_43_225
*1318 FILLER_43_237
*1319 FILLER_43_249
*1320 FILLER_43_261
*1321 FILLER_43_273
*1322 FILLER_43_279
*1323 FILLER_43_281
*1324 FILLER_43_293
*1325 FILLER_43_36
*1326 FILLER_43_52
*1327 FILLER_43_57
*1328 FILLER_43_81
*1329 FILLER_43_90
*1330 FILLER_44_109
*1331 FILLER_44_121
*1332 FILLER_44_133
*1333 FILLER_44_139
*1334 FILLER_44_141
*1335 FILLER_44_153
*1336 FILLER_44_165
*1337 FILLER_44_177
*1338 FILLER_44_189
*1339 FILLER_44_195
*1340 FILLER_44_197
*1341 FILLER_44_209
*1342 FILLER_44_221
*1343 FILLER_44_233
*1344 FILLER_44_24
*1345 FILLER_44_245
*1346 FILLER_44_251
*1347 FILLER_44_253
*1348 FILLER_44_265
*1349 FILLER_44_277
*1350 FILLER_44_289
*1351 FILLER_44_29
*1352 FILLER_44_297
*1353 FILLER_44_3
*1354 FILLER_44_53
*1355 FILLER_44_66
*1356 FILLER_44_77
*1357 FILLER_44_83
*1358 FILLER_44_85
*1359 FILLER_44_97
*1360 FILLER_45_101
*1361 FILLER_45_109
*1362 FILLER_45_113
*1363 FILLER_45_125
*1364 FILLER_45_137
*1365 FILLER_45_149
*1366 FILLER_45_16
*1367 FILLER_45_161
*1368 FILLER_45_167
*1369 FILLER_45_169
*1370 FILLER_45_181
*1371 FILLER_45_193
*1372 FILLER_45_205
*1373 FILLER_45_217
*1374 FILLER_45_223
*1375 FILLER_45_225
*1376 FILLER_45_237
*1377 FILLER_45_249
*1378 FILLER_45_261
*1379 FILLER_45_273
*1380 FILLER_45_279
*1381 FILLER_45_281
*1382 FILLER_45_293
*1383 FILLER_45_3
*1384 FILLER_45_40
*1385 FILLER_45_52
*1386 FILLER_45_65
*1387 FILLER_45_77
*1388 FILLER_45_89
*1389 FILLER_46_109
*1390 FILLER_46_121
*1391 FILLER_46_133
*1392 FILLER_46_139
*1393 FILLER_46_141
*1394 FILLER_46_153
*1395 FILLER_46_165
*1396 FILLER_46_177
*1397 FILLER_46_189
*1398 FILLER_46_195
*1399 FILLER_46_197
*1400 FILLER_46_209
*1401 FILLER_46_221
*1402 FILLER_46_233
*1403 FILLER_46_24
*1404 FILLER_46_245
*1405 FILLER_46_251
*1406 FILLER_46_253
*1407 FILLER_46_265
*1408 FILLER_46_277
*1409 FILLER_46_289
*1410 FILLER_46_29
*1411 FILLER_46_297
*1412 FILLER_46_3
*1413 FILLER_46_53
*1414 FILLER_46_64
*1415 FILLER_46_76
*1416 FILLER_46_85
*1417 FILLER_46_97
*1418 FILLER_47_105
*1419 FILLER_47_111
*1420 FILLER_47_113
*1421 FILLER_47_12
*1422 FILLER_47_125
*1423 FILLER_47_137
*1424 FILLER_47_149
*1425 FILLER_47_161
*1426 FILLER_47_167
*1427 FILLER_47_169
*1428 FILLER_47_181
*1429 FILLER_47_193
*1430 FILLER_47_205
*1431 FILLER_47_217
*1432 FILLER_47_223
*1433 FILLER_47_225
*1434 FILLER_47_237
*1435 FILLER_47_249
*1436 FILLER_47_261
*1437 FILLER_47_273
*1438 FILLER_47_279
*1439 FILLER_47_281
*1440 FILLER_47_293
*1441 FILLER_47_36
*1442 FILLER_47_47
*1443 FILLER_47_55
*1444 FILLER_47_57
*1445 FILLER_47_69
*1446 FILLER_47_81
*1447 FILLER_47_93
*1448 FILLER_48_109
*1449 FILLER_48_121
*1450 FILLER_48_133
*1451 FILLER_48_139
*1452 FILLER_48_141
*1453 FILLER_48_153
*1454 FILLER_48_165
*1455 FILLER_48_177
*1456 FILLER_48_189
*1457 FILLER_48_195
*1458 FILLER_48_197
*1459 FILLER_48_209
*1460 FILLER_48_221
*1461 FILLER_48_233
*1462 FILLER_48_24
*1463 FILLER_48_245
*1464 FILLER_48_251
*1465 FILLER_48_253
*1466 FILLER_48_265
*1467 FILLER_48_277
*1468 FILLER_48_289
*1469 FILLER_48_29
*1470 FILLER_48_297
*1471 FILLER_48_3
*1472 FILLER_48_53
*1473 FILLER_48_65
*1474 FILLER_48_77
*1475 FILLER_48_83
*1476 FILLER_48_85
*1477 FILLER_48_97
*1478 FILLER_49_105
*1479 FILLER_49_111
*1480 FILLER_49_113
*1481 FILLER_49_125
*1482 FILLER_49_137
*1483 FILLER_49_149
*1484 FILLER_49_161
*1485 FILLER_49_167
*1486 FILLER_49_169
*1487 FILLER_49_181
*1488 FILLER_49_193
*1489 FILLER_49_205
*1490 FILLER_49_217
*1491 FILLER_49_223
*1492 FILLER_49_225
*1493 FILLER_49_237
*1494 FILLER_49_249
*1495 FILLER_49_261
*1496 FILLER_49_273
*1497 FILLER_49_279
*1498 FILLER_49_281
*1499 FILLER_49_293
*1500 FILLER_49_31
*1501 FILLER_49_43
*1502 FILLER_49_55
*1503 FILLER_49_57
*1504 FILLER_49_69
*1505 FILLER_49_7
*1506 FILLER_49_81
*1507 FILLER_49_93
*1508 FILLER_4_109
*1509 FILLER_4_121
*1510 FILLER_4_133
*1511 FILLER_4_139
*1512 FILLER_4_141
*1513 FILLER_4_15
*1514 FILLER_4_153
*1515 FILLER_4_165
*1516 FILLER_4_177
*1517 FILLER_4_189
*1518 FILLER_4_195
*1519 FILLER_4_197
*1520 FILLER_4_209
*1521 FILLER_4_221
*1522 FILLER_4_233
*1523 FILLER_4_245
*1524 FILLER_4_251
*1525 FILLER_4_253
*1526 FILLER_4_265
*1527 FILLER_4_27
*1528 FILLER_4_277
*1529 FILLER_4_289
*1530 FILLER_4_29
*1531 FILLER_4_297
*1532 FILLER_4_3
*1533 FILLER_4_41
*1534 FILLER_4_53
*1535 FILLER_4_65
*1536 FILLER_4_77
*1537 FILLER_4_83
*1538 FILLER_4_85
*1539 FILLER_4_97
*1540 FILLER_50_109
*1541 FILLER_50_121
*1542 FILLER_50_133
*1543 FILLER_50_139
*1544 FILLER_50_141
*1545 FILLER_50_153
*1546 FILLER_50_165
*1547 FILLER_50_177
*1548 FILLER_50_189
*1549 FILLER_50_195
*1550 FILLER_50_197
*1551 FILLER_50_209
*1552 FILLER_50_221
*1553 FILLER_50_233
*1554 FILLER_50_24
*1555 FILLER_50_245
*1556 FILLER_50_251
*1557 FILLER_50_253
*1558 FILLER_50_265
*1559 FILLER_50_277
*1560 FILLER_50_289
*1561 FILLER_50_29
*1562 FILLER_50_297
*1563 FILLER_50_3
*1564 FILLER_50_41
*1565 FILLER_50_53
*1566 FILLER_50_65
*1567 FILLER_50_77
*1568 FILLER_50_83
*1569 FILLER_50_85
*1570 FILLER_50_97
*1571 FILLER_51_105
*1572 FILLER_51_111
*1573 FILLER_51_113
*1574 FILLER_51_125
*1575 FILLER_51_137
*1576 FILLER_51_149
*1577 FILLER_51_15
*1578 FILLER_51_161
*1579 FILLER_51_167
*1580 FILLER_51_169
*1581 FILLER_51_181
*1582 FILLER_51_193
*1583 FILLER_51_205
*1584 FILLER_51_217
*1585 FILLER_51_223
*1586 FILLER_51_225
*1587 FILLER_51_237
*1588 FILLER_51_249
*1589 FILLER_51_261
*1590 FILLER_51_27
*1591 FILLER_51_273
*1592 FILLER_51_279
*1593 FILLER_51_281
*1594 FILLER_51_293
*1595 FILLER_51_3
*1596 FILLER_51_39
*1597 FILLER_51_51
*1598 FILLER_51_55
*1599 FILLER_51_57