*SPEF "ieee 1481-1999"
*DESIGN "sophialiCMU_math"
*DATE "11:11:11 Fri 11 11, 1111"
*VENDOR "OpenRCX"
*PROGRAM "Parallel Extraction"
*VERSION "1.0"
*DESIGN_FLOW "NAME_SCOPE LOCAL" "PIN_CAP NONE"
*DIVIDER /
*DELIMITER :
*BUS_DELIMITER []
*T_UNIT 1 NS
*C_UNIT 1 PF
*R_UNIT 1 OHM
*L_UNIT 1 HENRY

*NAME_MAP
*1 io_in[0]
*2 io_in[1]
*3 io_in[2]
*4 io_in[3]
*5 io_in[4]
*6 io_in[5]
*7 io_in[6]
*8 io_in[7]
*9 io_out[0]
*10 io_out[1]
*11 io_out[2]
*12 io_out[3]
*13 io_out[4]
*14 io_out[5]
*15 io_out[6]
*16 io_out[7]
*19 _000_
*20 _001_
*21 _002_
*22 _003_
*23 _004_
*24 _005_
*25 _006_
*26 _007_
*27 _008_
*28 _009_
*29 _010_
*30 _011_
*31 _012_
*32 _013_
*33 _014_
*34 _015_
*35 _016_
*36 _017_
*37 _018_
*38 _019_
*39 _020_
*40 _021_
*41 _022_
*42 _023_
*43 _024_
*44 _025_
*45 _026_
*46 _027_
*47 _028_
*48 _029_
*49 _030_
*50 _031_
*51 _032_
*52 _033_
*53 _034_
*54 _035_
*55 _036_
*56 _037_
*57 _038_
*58 _039_
*59 _040_
*60 _041_
*61 _042_
*62 _043_
*63 _044_
*64 _045_
*65 _046_
*66 _047_
*67 _048_
*68 _049_
*69 _050_
*70 _051_
*71 _052_
*72 _053_
*73 _054_
*74 _055_
*75 _056_
*76 _057_
*77 _058_
*78 _059_
*79 _060_
*80 _061_
*81 _062_
*82 _063_
*83 _064_
*84 _065_
*85 _066_
*86 _067_
*87 _068_
*88 _069_
*89 _070_
*90 _071_
*91 _072_
*92 _073_
*93 _074_
*94 _075_
*95 _076_
*96 _077_
*97 _078_
*98 _079_
*99 _080_
*100 _081_
*101 _082_
*102 _083_
*103 _084_
*104 _085_
*105 _086_
*106 _087_
*107 _088_
*108 _089_
*109 _090_
*110 _091_
*111 _092_
*112 _093_
*113 _094_
*114 _095_
*115 _096_
*116 _097_
*117 _098_
*118 _099_
*119 _100_
*120 _101_
*121 _102_
*122 _103_
*123 _104_
*124 _105_
*125 _106_
*126 _107_
*127 _108_
*128 _109_
*129 _110_
*130 _111_
*131 _112_
*132 _113_
*133 _114_
*134 _115_
*135 _116_
*136 _117_
*137 _118_
*138 _119_
*139 _120_
*140 _121_
*141 _122_
*142 _123_
*143 clknet_0_io_in[0]
*144 clknet_1_0__leaf_io_in[0]
*145 clknet_1_1__leaf_io_in[0]
*146 net1
*147 net2
*148 net3
*149 net4
*150 net5
*151 net6
*152 net7
*153 state
*154 ANTENNA_0
*155 FILLER_0_109
*156 FILLER_0_113
*157 FILLER_0_125
*158 FILLER_0_137
*159 FILLER_0_141
*160 FILLER_0_15
*161 FILLER_0_153
*162 FILLER_0_165
*163 FILLER_0_169
*164 FILLER_0_181
*165 FILLER_0_193
*166 FILLER_0_197
*167 FILLER_0_209
*168 FILLER_0_221
*169 FILLER_0_225
*170 FILLER_0_237
*171 FILLER_0_249
*172 FILLER_0_253
*173 FILLER_0_265
*174 FILLER_0_27
*175 FILLER_0_277
*176 FILLER_0_281
*177 FILLER_0_293
*178 FILLER_0_3
*179 FILLER_0_52
*180 FILLER_0_57
*181 FILLER_0_80
*182 FILLER_0_85
*183 FILLER_0_97
*184 FILLER_10_104
*185 FILLER_10_116
*186 FILLER_10_128
*187 FILLER_10_13
*188 FILLER_10_141
*189 FILLER_10_153
*190 FILLER_10_165
*191 FILLER_10_181
*192 FILLER_10_193
*193 FILLER_10_197
*194 FILLER_10_209
*195 FILLER_10_221
*196 FILLER_10_233
*197 FILLER_10_24
*198 FILLER_10_245
*199 FILLER_10_251
*200 FILLER_10_253
*201 FILLER_10_265
*202 FILLER_10_277
*203 FILLER_10_289
*204 FILLER_10_297
*205 FILLER_10_3
*206 FILLER_10_32
*207 FILLER_10_43
*208 FILLER_10_55
*209 FILLER_10_63
*210 FILLER_10_75
*211 FILLER_10_83
*212 FILLER_10_93
*213 FILLER_10_99
*214 FILLER_11_102
*215 FILLER_11_110
*216 FILLER_11_113
*217 FILLER_11_125
*218 FILLER_11_13
*219 FILLER_11_137
*220 FILLER_11_149
*221 FILLER_11_161
*222 FILLER_11_167
*223 FILLER_11_169
*224 FILLER_11_17
*225 FILLER_11_181
*226 FILLER_11_193
*227 FILLER_11_205
*228 FILLER_11_217
*229 FILLER_11_22
*230 FILLER_11_223
*231 FILLER_11_225
*232 FILLER_11_237
*233 FILLER_11_249
*234 FILLER_11_261
*235 FILLER_11_273
*236 FILLER_11_279
*237 FILLER_11_281
*238 FILLER_11_293
*239 FILLER_11_3
*240 FILLER_11_34
*241 FILLER_11_42
*242 FILLER_11_52
*243 FILLER_11_57
*244 FILLER_11_68
*245 FILLER_11_79
*246 FILLER_11_9
*247 FILLER_11_91
*248 FILLER_12_109
*249 FILLER_12_121
*250 FILLER_12_133
*251 FILLER_12_139
*252 FILLER_12_141
*253 FILLER_12_153
*254 FILLER_12_165
*255 FILLER_12_177
*256 FILLER_12_18
*257 FILLER_12_189
*258 FILLER_12_195
*259 FILLER_12_197
*260 FILLER_12_209
*261 FILLER_12_221
*262 FILLER_12_233
*263 FILLER_12_245
*264 FILLER_12_251
*265 FILLER_12_253
*266 FILLER_12_26
*267 FILLER_12_265
*268 FILLER_12_277
*269 FILLER_12_289
*270 FILLER_12_297
*271 FILLER_12_32
*272 FILLER_12_47
*273 FILLER_12_6
*274 FILLER_12_64
*275 FILLER_12_72
*276 FILLER_12_79
*277 FILLER_12_83
*278 FILLER_12_85
*279 FILLER_12_97
*280 FILLER_13_104
*281 FILLER_13_113
*282 FILLER_13_125
*283 FILLER_13_136
*284 FILLER_13_148
*285 FILLER_13_152
*286 FILLER_13_158
*287 FILLER_13_166
*288 FILLER_13_169
*289 FILLER_13_18
*290 FILLER_13_181
*291 FILLER_13_193
*292 FILLER_13_205
*293 FILLER_13_217
*294 FILLER_13_223
*295 FILLER_13_225
*296 FILLER_13_237
*297 FILLER_13_249
*298 FILLER_13_261
*299 FILLER_13_273
*300 FILLER_13_279
*301 FILLER_13_281
*302 FILLER_13_293
*303 FILLER_13_3
*304 FILLER_13_30
*305 FILLER_13_38
*306 FILLER_13_43
*307 FILLER_13_50
*308 FILLER_13_78
*309 FILLER_13_9
*310 FILLER_13_92
*311 FILLER_14_106
*312 FILLER_14_118
*313 FILLER_14_126
*314 FILLER_14_13
*315 FILLER_14_132
*316 FILLER_14_141
*317 FILLER_14_153
*318 FILLER_14_165
*319 FILLER_14_177
*320 FILLER_14_189
*321 FILLER_14_195
*322 FILLER_14_197
*323 FILLER_14_209
*324 FILLER_14_221
*325 FILLER_14_233
*326 FILLER_14_245
*327 FILLER_14_25
*328 FILLER_14_251
*329 FILLER_14_253
*330 FILLER_14_265
*331 FILLER_14_277
*332 FILLER_14_289
*333 FILLER_14_297
*334 FILLER_14_3
*335 FILLER_14_35
*336 FILLER_14_47
*337 FILLER_14_59
*338 FILLER_14_73
*339 FILLER_14_81
*340 FILLER_15_100
*341 FILLER_15_106
*342 FILLER_15_113
*343 FILLER_15_125
*344 FILLER_15_137
*345 FILLER_15_149
*346 FILLER_15_15
*347 FILLER_15_161
*348 FILLER_15_167
*349 FILLER_15_169
*350 FILLER_15_181
*351 FILLER_15_193
*352 FILLER_15_205
*353 FILLER_15_217
*354 FILLER_15_223
*355 FILLER_15_225
*356 FILLER_15_237
*357 FILLER_15_249
*358 FILLER_15_261
*359 FILLER_15_27
*360 FILLER_15_273
*361 FILLER_15_279
*362 FILLER_15_281
*363 FILLER_15_293
*364 FILLER_15_3
*365 FILLER_15_34
*366 FILLER_15_42
*367 FILLER_15_52
*368 FILLER_15_57
*369 FILLER_15_65
*370 FILLER_15_72
*371 FILLER_15_84
*372 FILLER_15_96
*373 FILLER_16_109
*374 FILLER_16_121
*375 FILLER_16_13
*376 FILLER_16_133
*377 FILLER_16_139
*378 FILLER_16_141
*379 FILLER_16_149
*380 FILLER_16_160
*381 FILLER_16_172
*382 FILLER_16_184
*383 FILLER_16_197
*384 FILLER_16_209
*385 FILLER_16_221
*386 FILLER_16_233
*387 FILLER_16_245
*388 FILLER_16_25
*389 FILLER_16_251
*390 FILLER_16_253
*391 FILLER_16_265
*392 FILLER_16_277
*393 FILLER_16_289
*394 FILLER_16_297
*395 FILLER_16_34
*396 FILLER_16_50
*397 FILLER_16_62
*398 FILLER_16_73
*399 FILLER_16_81
*400 FILLER_16_85
*401 FILLER_16_97
*402 FILLER_17_100
*403 FILLER_17_113
*404 FILLER_17_125
*405 FILLER_17_137
*406 FILLER_17_149
*407 FILLER_17_15
*408 FILLER_17_161
*409 FILLER_17_167
*410 FILLER_17_169
*411 FILLER_17_181
*412 FILLER_17_193
*413 FILLER_17_205
*414 FILLER_17_217
*415 FILLER_17_223
*416 FILLER_17_225
*417 FILLER_17_237
*418 FILLER_17_249
*419 FILLER_17_261
*420 FILLER_17_27
*421 FILLER_17_273
*422 FILLER_17_279
*423 FILLER_17_281
*424 FILLER_17_293
*425 FILLER_17_3
*426 FILLER_17_39
*427 FILLER_17_48
*428 FILLER_17_57
*429 FILLER_17_65
*430 FILLER_17_77
*431 FILLER_17_89
*432 FILLER_18_109
*433 FILLER_18_113
*434 FILLER_18_123
*435 FILLER_18_13
*436 FILLER_18_135
*437 FILLER_18_139
*438 FILLER_18_141
*439 FILLER_18_153
*440 FILLER_18_165
*441 FILLER_18_177
*442 FILLER_18_189
*443 FILLER_18_195
*444 FILLER_18_197
*445 FILLER_18_209
*446 FILLER_18_221
*447 FILLER_18_233
*448 FILLER_18_24
*449 FILLER_18_245
*450 FILLER_18_251
*451 FILLER_18_253
*452 FILLER_18_265
*453 FILLER_18_277
*454 FILLER_18_289
*455 FILLER_18_297
*456 FILLER_18_3
*457 FILLER_18_42
*458 FILLER_18_55
*459 FILLER_18_61
*460 FILLER_18_69
*461 FILLER_18_80
*462 FILLER_18_85
*463 FILLER_18_97
*464 FILLER_19_108
*465 FILLER_19_11
*466 FILLER_19_113
*467 FILLER_19_125
*468 FILLER_19_137
*469 FILLER_19_149
*470 FILLER_19_161
*471 FILLER_19_167
*472 FILLER_19_169
*473 FILLER_19_181
*474 FILLER_19_193
*475 FILLER_19_205
*476 FILLER_19_217
*477 FILLER_19_223
*478 FILLER_19_225
*479 FILLER_19_23
*480 FILLER_19_237
*481 FILLER_19_249
*482 FILLER_19_261
*483 FILLER_19_273
*484 FILLER_19_279
*485 FILLER_19_281
*486 FILLER_19_293
*487 FILLER_19_3
*488 FILLER_19_35
*489 FILLER_19_41
*490 FILLER_19_52
*491 FILLER_19_57
*492 FILLER_19_68
*493 FILLER_19_83
*494 FILLER_1_100
*495 FILLER_1_104
*496 FILLER_1_117
*497 FILLER_1_128
*498 FILLER_1_140
*499 FILLER_1_152
*500 FILLER_1_164
*501 FILLER_1_169
*502 FILLER_1_181
*503 FILLER_1_193
*504 FILLER_1_205
*505 FILLER_1_217
*506 FILLER_1_223
*507 FILLER_1_225
*508 FILLER_1_237
*509 FILLER_1_249
*510 FILLER_1_261
*511 FILLER_1_273
*512 FILLER_1_279
*513 FILLER_1_281
*514 FILLER_1_293
*515 FILLER_1_34
*516 FILLER_1_38
*517 FILLER_1_42
*518 FILLER_1_52
*519 FILLER_1_7
*520 FILLER_1_80
*521 FILLER_1_92
*522 FILLER_20_102
*523 FILLER_20_114
*524 FILLER_20_126
*525 FILLER_20_132
*526 FILLER_20_136
*527 FILLER_20_141
*528 FILLER_20_153
*529 FILLER_20_165
*530 FILLER_20_177
*531 FILLER_20_189
*532 FILLER_20_19
*533 FILLER_20_195
*534 FILLER_20_197
*535 FILLER_20_209
*536 FILLER_20_221
*537 FILLER_20_233
*538 FILLER_20_245
*539 FILLER_20_251
*540 FILLER_20_253
*541 FILLER_20_265
*542 FILLER_20_27
*543 FILLER_20_277
*544 FILLER_20_289
*545 FILLER_20_29
*546 FILLER_20_297
*547 FILLER_20_37
*548 FILLER_20_49
*549 FILLER_20_57
*550 FILLER_20_65
*551 FILLER_20_7
*552 FILLER_20_73
*553 FILLER_20_78
*554 FILLER_20_85
*555 FILLER_20_93
*556 FILLER_21_103
*557 FILLER_21_111
*558 FILLER_21_113
*559 FILLER_21_125
*560 FILLER_21_15
*561 FILLER_21_150
*562 FILLER_21_162
*563 FILLER_21_169
*564 FILLER_21_181
*565 FILLER_21_193
*566 FILLER_21_205
*567 FILLER_21_217
*568 FILLER_21_223
*569 FILLER_21_225
*570 FILLER_21_237
*571 FILLER_21_249
*572 FILLER_21_261
*573 FILLER_21_27
*574 FILLER_21_273
*575 FILLER_21_279
*576 FILLER_21_281
*577 FILLER_21_293
*578 FILLER_21_3
*579 FILLER_21_39
*580 FILLER_21_51
*581 FILLER_21_55
*582 FILLER_21_57
*583 FILLER_21_63
*584 FILLER_21_75
*585 FILLER_21_87
*586 FILLER_22_101
*587 FILLER_22_113
*588 FILLER_22_125
*589 FILLER_22_137
*590 FILLER_22_14
*591 FILLER_22_146
*592 FILLER_22_158
*593 FILLER_22_170
*594 FILLER_22_182
*595 FILLER_22_194
*596 FILLER_22_197
*597 FILLER_22_209
*598 FILLER_22_221
*599 FILLER_22_233
*600 FILLER_22_245
*601 FILLER_22_251
*602 FILLER_22_253
*603 FILLER_22_26
*604 FILLER_22_265
*605 FILLER_22_277
*606 FILLER_22_289
*607 FILLER_22_29
*608 FILLER_22_297
*609 FILLER_22_3
*610 FILLER_22_41
*611 FILLER_22_49
*612 FILLER_22_61
*613 FILLER_22_73
*614 FILLER_22_81
*615 FILLER_22_85
*616 FILLER_23_11
*617 FILLER_23_111
*618 FILLER_23_113
*619 FILLER_23_125
*620 FILLER_23_137
*621 FILLER_23_149
*622 FILLER_23_161
*623 FILLER_23_167
*624 FILLER_23_169
*625 FILLER_23_181
*626 FILLER_23_193
*627 FILLER_23_205
*628 FILLER_23_217
*629 FILLER_23_223
*630 FILLER_23_225
*631 FILLER_23_23
*632 FILLER_23_237
*633 FILLER_23_249
*634 FILLER_23_261
*635 FILLER_23_273
*636 FILLER_23_279
*637 FILLER_23_281
*638 FILLER_23_293
*639 FILLER_23_3
*640 FILLER_23_35
*641 FILLER_23_43
*642 FILLER_23_48
*643 FILLER_23_63
*644 FILLER_23_75
*645 FILLER_23_87
*646 FILLER_23_99
*647 FILLER_24_109
*648 FILLER_24_121
*649 FILLER_24_133
*650 FILLER_24_139
*651 FILLER_24_141
*652 FILLER_24_153
*653 FILLER_24_165
*654 FILLER_24_177
*655 FILLER_24_189
*656 FILLER_24_195
*657 FILLER_24_197
*658 FILLER_24_209
*659 FILLER_24_21
*660 FILLER_24_221
*661 FILLER_24_233
*662 FILLER_24_245
*663 FILLER_24_251
*664 FILLER_24_253
*665 FILLER_24_265
*666 FILLER_24_27
*667 FILLER_24_277
*668 FILLER_24_289
*669 FILLER_24_29
*670 FILLER_24_297
*671 FILLER_24_3
*672 FILLER_24_41
*673 FILLER_24_53
*674 FILLER_24_68
*675 FILLER_24_80
*676 FILLER_24_85
*677 FILLER_24_9
*678 FILLER_24_97
*679 FILLER_25_105
*680 FILLER_25_111
*681 FILLER_25_113
*682 FILLER_25_123
*683 FILLER_25_130
*684 FILLER_25_142
*685 FILLER_25_15
*686 FILLER_25_154
*687 FILLER_25_166
*688 FILLER_25_169
*689 FILLER_25_181
*690 FILLER_25_193
*691 FILLER_25_205
*692 FILLER_25_217
*693 FILLER_25_223
*694 FILLER_25_225
*695 FILLER_25_237
*696 FILLER_25_249
*697 FILLER_25_261
*698 FILLER_25_27
*699 FILLER_25_273
*700 FILLER_25_279
*701 FILLER_25_281
*702 FILLER_25_293
*703 FILLER_25_3
*704 FILLER_25_35
*705 FILLER_25_41
*706 FILLER_25_53
*707 FILLER_25_57
*708 FILLER_25_69
*709 FILLER_25_81
*710 FILLER_25_93
*711 FILLER_26_109
*712 FILLER_26_121
*713 FILLER_26_133
*714 FILLER_26_139
*715 FILLER_26_141
*716 FILLER_26_15
*717 FILLER_26_153
*718 FILLER_26_165
*719 FILLER_26_177
*720 FILLER_26_189
*721 FILLER_26_195
*722 FILLER_26_197
*723 FILLER_26_209
*724 FILLER_26_221
*725 FILLER_26_233
*726 FILLER_26_245
*727 FILLER_26_251
*728 FILLER_26_253
*729 FILLER_26_265
*730 FILLER_26_27
*731 FILLER_26_277
*732 FILLER_26_289
*733 FILLER_26_29
*734 FILLER_26_297
*735 FILLER_26_3
*736 FILLER_26_41
*737 FILLER_26_53
*738 FILLER_26_65
*739 FILLER_26_77
*740 FILLER_26_83
*741 FILLER_26_85
*742 FILLER_26_97
*743 FILLER_27_105
*744 FILLER_27_111
*745 FILLER_27_113
*746 FILLER_27_125
*747 FILLER_27_13
*748 FILLER_27_137
*749 FILLER_27_149
*750 FILLER_27_161
*751 FILLER_27_167
*752 FILLER_27_169
*753 FILLER_27_181
*754 FILLER_27_193
*755 FILLER_27_205
*756 FILLER_27_217
*757 FILLER_27_223
*758 FILLER_27_225
*759 FILLER_27_237
*760 FILLER_27_249
*761 FILLER_27_25
*762 FILLER_27_261
*763 FILLER_27_273
*764 FILLER_27_279
*765 FILLER_27_281
*766 FILLER_27_293
*767 FILLER_27_37
*768 FILLER_27_49
*769 FILLER_27_55
*770 FILLER_27_57
*771 FILLER_27_69
*772 FILLER_27_81
*773 FILLER_27_93
*774 FILLER_28_109
*775 FILLER_28_121
*776 FILLER_28_133
*777 FILLER_28_139
*778 FILLER_28_141
*779 FILLER_28_15
*780 FILLER_28_153
*781 FILLER_28_165
*782 FILLER_28_177
*783 FILLER_28_189
*784 FILLER_28_195
*785 FILLER_28_197
*786 FILLER_28_209
*787 FILLER_28_221
*788 FILLER_28_233
*789 FILLER_28_245
*790 FILLER_28_251
*791 FILLER_28_253
*792 FILLER_28_265
*793 FILLER_28_27
*794 FILLER_28_277
*795 FILLER_28_289
*796 FILLER_28_29
*797 FILLER_28_297
*798 FILLER_28_3
*799 FILLER_28_41
*800 FILLER_28_53
*801 FILLER_28_57
*802 FILLER_28_64
*803 FILLER_28_76
*804 FILLER_28_85
*805 FILLER_28_97
*806 FILLER_29_105
*807 FILLER_29_111
*808 FILLER_29_113
*809 FILLER_29_125
*810 FILLER_29_137
*811 FILLER_29_149
*812 FILLER_29_15
*813 FILLER_29_161
*814 FILLER_29_167
*815 FILLER_29_169
*816 FILLER_29_181
*817 FILLER_29_193
*818 FILLER_29_205
*819 FILLER_29_217
*820 FILLER_29_223
*821 FILLER_29_225
*822 FILLER_29_237
*823 FILLER_29_249
*824 FILLER_29_261
*825 FILLER_29_27
*826 FILLER_29_273
*827 FILLER_29_279
*828 FILLER_29_281
*829 FILLER_29_293
*830 FILLER_29_3
*831 FILLER_29_39
*832 FILLER_29_51
*833 FILLER_29_55
*834 FILLER_29_57
*835 FILLER_29_69
*836 FILLER_29_81
*837 FILLER_29_93
*838 FILLER_2_100
*839 FILLER_2_112
*840 FILLER_2_124
*841 FILLER_2_136
*842 FILLER_2_141
*843 FILLER_2_153
*844 FILLER_2_165
*845 FILLER_2_177
*846 FILLER_2_189
*847 FILLER_2_195
*848 FILLER_2_197
*849 FILLER_2_209
*850 FILLER_2_221
*851 FILLER_2_233
*852 FILLER_2_24
*853 FILLER_2_245
*854 FILLER_2_251
*855 FILLER_2_253
*856 FILLER_2_265
*857 FILLER_2_277
*858 FILLER_2_289
*859 FILLER_2_297
*860 FILLER_2_3
*861 FILLER_2_52
*862 FILLER_2_59
*863 FILLER_2_63
*864 FILLER_2_73
*865 FILLER_2_81
*866 FILLER_2_88
*867 FILLER_30_109
*868 FILLER_30_121
*869 FILLER_30_133
*870 FILLER_30_139
*871 FILLER_30_141
*872 FILLER_30_15
*873 FILLER_30_153
*874 FILLER_30_165
*875 FILLER_30_177
*876 FILLER_30_189
*877 FILLER_30_195
*878 FILLER_30_197
*879 FILLER_30_209
*880 FILLER_30_221
*881 FILLER_30_233
*882 FILLER_30_245
*883 FILLER_30_251
*884 FILLER_30_253
*885 FILLER_30_265
*886 FILLER_30_27
*887 FILLER_30_277
*888 FILLER_30_289
*889 FILLER_30_29
*890 FILLER_30_297
*891 FILLER_30_3
*892 FILLER_30_41
*893 FILLER_30_53
*894 FILLER_30_65
*895 FILLER_30_77
*896 FILLER_30_83
*897 FILLER_30_85
*898 FILLER_30_97
*899 FILLER_31_105
*900 FILLER_31_111
*901 FILLER_31_113
*902 FILLER_31_125
*903 FILLER_31_137
*904 FILLER_31_149
*905 FILLER_31_15
*906 FILLER_31_161
*907 FILLER_31_167
*908 FILLER_31_169
*909 FILLER_31_181
*910 FILLER_31_193
*911 FILLER_31_205
*912 FILLER_31_217
*913 FILLER_31_223
*914 FILLER_31_225
*915 FILLER_31_237
*916 FILLER_31_249
*917 FILLER_31_261
*918 FILLER_31_27
*919 FILLER_31_273
*920 FILLER_31_279
*921 FILLER_31_281
*922 FILLER_31_293
*923 FILLER_31_3
*924 FILLER_31_39
*925 FILLER_31_51
*926 FILLER_31_55
*927 FILLER_31_57
*928 FILLER_31_69
*929 FILLER_31_81
*930 FILLER_31_93
*931 FILLER_32_109
*932 FILLER_32_121
*933 FILLER_32_133
*934 FILLER_32_139
*935 FILLER_32_141
*936 FILLER_32_15
*937 FILLER_32_153
*938 FILLER_32_165
*939 FILLER_32_177
*940 FILLER_32_189
*941 FILLER_32_195
*942 FILLER_32_197
*943 FILLER_32_209
*944 FILLER_32_221
*945 FILLER_32_233
*946 FILLER_32_245
*947 FILLER_32_251
*948 FILLER_32_253
*949 FILLER_32_265
*950 FILLER_32_27
*951 FILLER_32_277
*952 FILLER_32_289
*953 FILLER_32_29
*954 FILLER_32_297
*955 FILLER_32_3
*956 FILLER_32_41
*957 FILLER_32_53
*958 FILLER_32_65
*959 FILLER_32_77
*960 FILLER_32_83
*961 FILLER_32_85
*962 FILLER_32_97
*963 FILLER_33_105
*964 FILLER_33_111
*965 FILLER_33_113
*966 FILLER_33_125
*967 FILLER_33_137
*968 FILLER_33_149
*969 FILLER_33_15
*970 FILLER_33_161
*971 FILLER_33_167
*972 FILLER_33_169
*973 FILLER_33_181
*974 FILLER_33_193
*975 FILLER_33_205
*976 FILLER_33_217
*977 FILLER_33_223
*978 FILLER_33_225
*979 FILLER_33_237
*980 FILLER_33_249
*981 FILLER_33_261
*982 FILLER_33_27
*983 FILLER_33_273
*984 FILLER_33_279
*985 FILLER_33_281
*986 FILLER_33_293
*987 FILLER_33_3
*988 FILLER_33_39
*989 FILLER_33_51
*990 FILLER_33_55
*991 FILLER_33_57
*992 FILLER_33_69
*993 FILLER_33_81
*994 FILLER_33_93
*995 FILLER_34_109
*996 FILLER_34_121
*997 FILLER_34_133
*998 FILLER_34_139
*999 FILLER_34_141
*1000 FILLER_34_15
*1001 FILLER_34_153
*1002 FILLER_34_165
*1003 FILLER_34_177
*1004 FILLER_34_189
*1005 FILLER_34_195
*1006 FILLER_34_197
*1007 FILLER_34_209
*1008 FILLER_34_221
*1009 FILLER_34_233
*1010 FILLER_34_245
*1011 FILLER_34_251
*1012 FILLER_34_253
*1013 FILLER_34_265
*1014 FILLER_34_27
*1015 FILLER_34_277
*1016 FILLER_34_289
*1017 FILLER_34_29
*1018 FILLER_34_297
*1019 FILLER_34_3
*1020 FILLER_34_41
*1021 FILLER_34_53
*1022 FILLER_34_65
*1023 FILLER_34_77
*1024 FILLER_34_83
*1025 FILLER_34_85
*1026 FILLER_34_97
*1027 FILLER_35_105
*1028 FILLER_35_111
*1029 FILLER_35_113
*1030 FILLER_35_125
*1031 FILLER_35_137
*1032 FILLER_35_149
*1033 FILLER_35_15
*1034 FILLER_35_161
*1035 FILLER_35_167
*1036 FILLER_35_169
*1037 FILLER_35_181
*1038 FILLER_35_193
*1039 FILLER_35_205
*1040 FILLER_35_217
*1041 FILLER_35_223
*1042 FILLER_35_225
*1043 FILLER_35_237
*1044 FILLER_35_249
*1045 FILLER_35_261
*1046 FILLER_35_27
*1047 FILLER_35_273
*1048 FILLER_35_279
*1049 FILLER_35_281
*1050 FILLER_35_293
*1051 FILLER_35_3
*1052 FILLER_35_35
*1053 FILLER_35_40
*1054 FILLER_35_52
*1055 FILLER_35_57
*1056 FILLER_35_69
*1057 FILLER_35_81
*1058 FILLER_35_93
*1059 FILLER_36_109
*1060 FILLER_36_121
*1061 FILLER_36_133
*1062 FILLER_36_139
*1063 FILLER_36_141
*1064 FILLER_36_15
*1065 FILLER_36_153
*1066 FILLER_36_165
*1067 FILLER_36_177
*1068 FILLER_36_189
*1069 FILLER_36_195
*1070 FILLER_36_197
*1071 FILLER_36_209
*1072 FILLER_36_221
*1073 FILLER_36_233
*1074 FILLER_36_245
*1075 FILLER_36_251
*1076 FILLER_36_253
*1077 FILLER_36_265
*1078 FILLER_36_27
*1079 FILLER_36_277
*1080 FILLER_36_289
*1081 FILLER_36_29
*1082 FILLER_36_297
*1083 FILLER_36_3
*1084 FILLER_36_41
*1085 FILLER_36_53
*1086 FILLER_36_65
*1087 FILLER_36_77
*1088 FILLER_36_83
*1089 FILLER_36_85
*1090 FILLER_36_97
*1091 FILLER_37_105
*1092 FILLER_37_111
*1093 FILLER_37_113
*1094 FILLER_37_125
*1095 FILLER_37_137
*1096 FILLER_37_149
*1097 FILLER_37_15
*1098 FILLER_37_161
*1099 FILLER_37_167
*1100 FILLER_37_169
*1101 FILLER_37_181
*1102 FILLER_37_193
*1103 FILLER_37_205
*1104 FILLER_37_217
*1105 FILLER_37_223
*1106 FILLER_37_225
*1107 FILLER_37_237
*1108 FILLER_37_249
*1109 FILLER_37_261
*1110 FILLER_37_27
*1111 FILLER_37_273
*1112 FILLER_37_279
*1113 FILLER_37_281
*1114 FILLER_37_293
*1115 FILLER_37_3
*1116 FILLER_37_39
*1117 FILLER_37_51
*1118 FILLER_37_55
*1119 FILLER_37_57
*1120 FILLER_37_69
*1121 FILLER_37_81
*1122 FILLER_37_93
*1123 FILLER_38_109
*1124 FILLER_38_121
*1125 FILLER_38_133
*1126 FILLER_38_139
*1127 FILLER_38_141
*1128 FILLER_38_15
*1129 FILLER_38_153
*1130 FILLER_38_165
*1131 FILLER_38_177
*1132 FILLER_38_189
*1133 FILLER_38_195
*1134 FILLER_38_197
*1135 FILLER_38_209
*1136 FILLER_38_221
*1137 FILLER_38_233
*1138 FILLER_38_245
*1139 FILLER_38_251
*1140 FILLER_38_253
*1141 FILLER_38_265
*1142 FILLER_38_27
*1143 FILLER_38_277
*1144 FILLER_38_289
*1145 FILLER_38_29
*1146 FILLER_38_297
*1147 FILLER_38_3
*1148 FILLER_38_41
*1149 FILLER_38_53
*1150 FILLER_38_65
*1151 FILLER_38_77
*1152 FILLER_38_83
*1153 FILLER_38_85
*1154 FILLER_38_97
*1155 FILLER_39_105
*1156 FILLER_39_111
*1157 FILLER_39_113
*1158 FILLER_39_125
*1159 FILLER_39_137
*1160 FILLER_39_149
*1161 FILLER_39_15
*1162 FILLER_39_161
*1163 FILLER_39_167
*1164 FILLER_39_169
*1165 FILLER_39_181
*1166 FILLER_39_193
*1167 FILLER_39_205
*1168 FILLER_39_217
*1169 FILLER_39_223
*1170 FILLER_39_225
*1171 FILLER_39_237
*1172 FILLER_39_249
*1173 FILLER_39_261
*1174 FILLER_39_27
*1175 FILLER_39_273
*1176 FILLER_39_279
*1177 FILLER_39_281
*1178 FILLER_39_293
*1179 FILLER_39_3
*1180 FILLER_39_39
*1181 FILLER_39_51
*1182 FILLER_39_55
*1183 FILLER_39_57
*1184 FILLER_39_69
*1185 FILLER_39_81
*1186 FILLER_39_93
*1187 FILLER_3_105
*1188 FILLER_3_111
*1189 FILLER_3_113
*1190 FILLER_3_125
*1191 FILLER_3_139
*1192 FILLER_3_150
*1193 FILLER_3_162
*1194 FILLER_3_169
*1195 FILLER_3_181
*1196 FILLER_3_193
*1197 FILLER_3_205
*1198 FILLER_3_217
*1199 FILLER_3_223
*1200 FILLER_3_225
*1201 FILLER_3_237
*1202 FILLER_3_249
*1203 FILLER_3_261
*1204 FILLER_3_273
*1205 FILLER_3_279
*1206 FILLER_3_281
*1207 FILLER_3_293
*1208 FILLER_3_3
*1209 FILLER_3_33
*1210 FILLER_3_42
*1211 FILLER_3_48
*1212 FILLER_3_52
*1213 FILLER_3_57
*1214 FILLER_3_62
*1215 FILLER_3_69
*1216 FILLER_3_78
*1217 FILLER_3_86
*1218 FILLER_3_9
*1219 FILLER_3_93
*1220 FILLER_3_97
*1221 FILLER_40_109
*1222 FILLER_40_121
*1223 FILLER_40_133
*1224 FILLER_40_139
*1225 FILLER_40_141
*1226 FILLER_40_15
*1227 FILLER_40_153
*1228 FILLER_40_165
*1229 FILLER_40_177
*1230 FILLER_40_189
*1231 FILLER_40_195
*1232 FILLER_40_197
*1233 FILLER_40_209
*1234 FILLER_40_221
*1235 FILLER_40_233
*1236 FILLER_40_245
*1237 FILLER_40_251
*1238 FILLER_40_253
*1239 FILLER_40_265
*1240 FILLER_40_27
*1241 FILLER_40_277
*1242 FILLER_40_289
*1243 FILLER_40_29
*1244 FILLER_40_297
*1245 FILLER_40_3
*1246 FILLER_40_41
*1247 FILLER_40_53
*1248 FILLER_40_65
*1249 FILLER_40_77
*1250 FILLER_40_83
*1251 FILLER_40_85
*1252 FILLER_40_97
*1253 FILLER_41_105
*1254 FILLER_41_111
*1255 FILLER_41_113
*1256 FILLER_41_125
*1257 FILLER_41_137
*1258 FILLER_41_149
*1259 FILLER_41_15
*1260 FILLER_41_161
*1261 FILLER_41_167
*1262 FILLER_41_169
*1263 FILLER_41_181
*1264 FILLER_41_193
*1265 FILLER_41_205
*1266 FILLER_41_217
*1267 FILLER_41_223
*1268 FILLER_41_225
*1269 FILLER_41_237
*1270 FILLER_41_249
*1271 FILLER_41_261
*1272 FILLER_41_27
*1273 FILLER_41_273
*1274 FILLER_41_279
*1275 FILLER_41_281
*1276 FILLER_41_293
*1277 FILLER_41_3
*1278 FILLER_41_39
*1279 FILLER_41_51
*1280 FILLER_41_55
*1281 FILLER_41_57
*1282 FILLER_41_69
*1283 FILLER_41_81
*1284 FILLER_41_93
*1285 FILLER_42_109
*1286 FILLER_42_121
*1287 FILLER_42_133
*1288 FILLER_42_139
*1289 FILLER_42_141
*1290 FILLER_42_15
*1291 FILLER_42_153
*1292 FILLER_42_165
*1293 FILLER_42_177
*1294 FILLER_42_189
*1295 FILLER_42_195
*1296 FILLER_42_197
*1297 FILLER_42_209
*1298 FILLER_42_221
*1299 FILLER_42_233
*1300 FILLER_42_245
*1301 FILLER_42_251
*1302 FILLER_42_253
*1303 FILLER_42_265
*1304 FILLER_42_27
*1305 FILLER_42_277
*1306 FILLER_42_289
*1307 FILLER_42_29
*1308 FILLER_42_297
*1309 FILLER_42_3
*1310 FILLER_42_41
*1311 FILLER_42_53
*1312 FILLER_42_65
*1313 FILLER_42_77
*1314 FILLER_42_83
*1315 FILLER_42_85
*1316 FILLER_42_97
*1317 FILLER_43_105
*1318 FILLER_43_111
*1319 FILLER_43_113
*1320 FILLER_43_125
*1321 FILLER_43_137
*1322 FILLER_43_149
*1323 FILLER_43_15
*1324 FILLER_43_161
*1325 FILLER_43_167
*1326 FILLER_43_169
*1327 FILLER_43_181
*1328 FILLER_43_193
*1329 FILLER_43_205
*1330 FILLER_43_217
*1331 FILLER_43_223
*1332 FILLER_43_225
*1333 FILLER_43_237
*1334 FILLER_43_249
*1335 FILLER_43_261
*1336 FILLER_43_27
*1337 FILLER_43_273
*1338 FILLER_43_279
*1339 FILLER_43_281
*1340 FILLER_43_293
*1341 FILLER_43_3
*1342 FILLER_43_39
*1343 FILLER_43_51
*1344 FILLER_43_55
*1345 FILLER_43_57
*1346 FILLER_43_69
*1347 FILLER_43_81
*1348 FILLER_43_93
*1349 FILLER_44_109
*1350 FILLER_44_121
*1351 FILLER_44_133
*1352 FILLER_44_139
*1353 FILLER_44_141
*1354 FILLER_44_15
*1355 FILLER_44_153
*1356 FILLER_44_165
*1357 FILLER_44_177
*1358 FILLER_44_189
*1359 FILLER_44_195
*1360 FILLER_44_197
*1361 FILLER_44_209
*1362 FILLER_44_221
*1363 FILLER_44_233
*1364 FILLER_44_245
*1365 FILLER_44_251
*1366 FILLER_44_253
*1367 FILLER_44_265
*1368 FILLER_44_27
*1369 FILLER_44_277
*1370 FILLER_44_289
*1371 FILLER_44_29
*1372 FILLER_44_297
*1373 FILLER_44_3
*1374 FILLER_44_41
*1375 FILLER_44_53
*1376 FILLER_44_65
*1377 FILLER_44_77
*1378 FILLER_44_83
*1379 FILLER_44_85
*1380 FILLER_44_97
*1381 FILLER_45_105
*1382 FILLER_45_111
*1383 FILLER_45_113
*1384 FILLER_45_125
*1385 FILLER_45_137
*1386 FILLER_45_149
*1387 FILLER_45_15
*1388 FILLER_45_161
*1389 FILLER_45_167
*1390 FILLER_45_169
*1391 FILLER_45_181
*1392 FILLER_45_193
*1393 FILLER_45_205
*1394 FILLER_45_217
*1395 FILLER_45_223
*1396 FILLER_45_225
*1397 FILLER_45_237
*1398 FILLER_45_249
*1399 FILLER_45_261
*1400 FILLER_45_27
*1401 FILLER_45_273
*1402 FILLER_45_279
*1403 FILLER_45_281
*1404 FILLER_45_293
*1405 FILLER_45_3
*1406 FILLER_45_39
*1407 FILLER_45_51
*1408 FILLER_45_55
*1409 FILLER_45_57
*1410 FILLER_45_69
*1411 FILLER_45_81
*1412 FILLER_45_93
*1413 FILLER_46_109
*1414 FILLER_46_121
*1415 FILLER_46_133
*1416 FILLER_46_139
*1417 FILLER_46_141
*1418 FILLER_46_15
*1419 FILLER_46_153
*1420 FILLER_46_165
*1421 FILLER_46_177
*1422 FILLER_46_189
*1423 FILLER_46_195
*1424 FILLER_46_197
*1425 FILLER_46_209
*1426 FILLER_46_221
*1427 FILLER_46_233
*1428 FILLER_46_245
*1429 FILLER_46_251
*1430 FILLER_46_253
*1431 FILLER_46_265
*1432 FILLER_46_27
*1433 FILLER_46_277
*1434 FILLER_46_289
*1435 FILLER_46_29
*1436 FILLER_46_297
*1437 FILLER_46_3
*1438 FILLER_46_41
*1439 FILLER_46_53
*1440 FILLER_46_65
*1441 FILLER_46_77
*1442 FILLER_46_83
*1443 FILLER_46_85
*1444 FILLER_46_97
*1445 FILLER_47_105
*1446 FILLER_47_111
*1447 FILLER_47_113
*1448 FILLER_47_125
*1449 FILLER_47_137
*1450 FILLER_47_149
*1451 FILLER_47_15
*1452 FILLER_47_161
*1453 FILLER_47_167
*1454 FILLER_47_169
*1455 FILLER_47_181
*1456 FILLER_47_193
*1457 FILLER_47_205
*1458 FILLER_47_217
*1459 FILLER_47_223
*1460 FILLER_47_225
*1461 FILLER_47_237
*1462 FILLER_47_249
*1463 FILLER_47_261
*1464 FILLER_47_27
*1465 FILLER_47_273
*1466 FILLER_47_279
*1467 FILLER_47_281
*1468 FILLER_47_293
*1469 FILLER_47_3
*1470 FILLER_47_39
*1471 FILLER_47_51
*1472 FILLER_47_55
*1473 FILLER_47_57
*1474 FILLER_47_69
*1475 FILLER_47_81
*1476 FILLER_47_93
*1477 FILLER_48_109
*1478 FILLER_48_121
*1479 FILLER_48_133
*1480 FILLER_48_139
*1481 FILLER_48_141
*1482 FILLER_48_15
*1483 FILLER_48_153
*1484 FILLER_48_165
*1485 FILLER_48_177
*1486 FILLER_48_189
*1487 FILLER_48_195
*1488 FILLER_48_197
*1489 FILLER_48_209
*1490 FILLER_48_221
*1491 FILLER_48_233
*1492 FILLER_48_245
*1493 FILLER_48_251
*1494 FILLER_48_253
*1495 FILLER_48_265
*1496 FILLER_48_27
*1497 FILLER_48_277
*1498 FILLER_48_289
*1499 FILLER_48_29
*1500 FILLER_48_297
*1501 FILLER_48_3
*1502 FILLER_48_41
*1503 FILLER_48_53
*1504 FILLER_48_65
*1505 FILLER_48_77
*1506 FILLER_48_83
*1507 FILLER_48_85
*1508 FILLER_48_97
*1509 FILLER_49_105
*1510 FILLER_49_111
*1511 FILLER_49_113
*1512 FILLER_49_125
*1513 FILLER_49_137
*1514 FILLER_49_149
*1515 FILLER_49_15
*1516 FILLER_49_161
*1517 FILLER_49_167
*1518 FILLER_49_169
*1519 FILLER_49_181
*1520 FILLER_49_193
*1521 FILLER_49_205
*1522 FILLER_49_217
*1523 FILLER_49_223
*1524 FILLER_49_225
*1525 FILLER_49_237
*1526 FILLER_49_249
*1527 FILLER_49_261
*1528 FILLER_49_27
*1529 FILLER_49_273
*1530 FILLER_49_279
*1531 FILLER_49_281
*1532 FILLER_49_293
*1533 FILLER_49_3
*1534 FILLER_49_39
*1535 FILLER_49_51
*1536 FILLER_49_55
*1537 FILLER_49_57
*1538 FILLER_49_69
*1539 FILLER_49_81
*1540 FILLER_49_93
*1541 FILLER_4_112
*1542 FILLER_4_124
*1543 FILLER_4_136
*1544 FILLER_4_141
*1545 FILLER_4_153
*1546 FILLER_4_165
*1547 FILLER_4_177
*1548 FILLER_4_189
*1549 FILLER_4_195
*1550 FILLER_4_197
*1551 FILLER_4_209
*1552 FILLER_4_221
*1553 FILLER_4_233
*1554 FILLER_4_24
*1555 FILLER_4_245
*1556 FILLER_4_251
*1557 FILLER_4_253
*1558 FILLER_4_265
*1559 FILLER_4_277
*1560 FILLER_4_289
*1561 FILLER_4_297
*1562 FILLER_4_3
*1563 FILLER_4_52
*1564 FILLER_4_59
*1565 FILLER_4_71
*1566 FILLER_4_80
*1567 FILLER_4_85
*1568 FILLER_4_97
*1569 FILLER_50_109
*1570 FILLER_50_121
*1571 FILLER_50_133
*1572 FILLER_50_139
*1573 FILLER_50_141
*1574 FILLER_50_15
*1575 FILLER_50_153
*1576 FILLER_50_165
*1577 FILLER_50_177
*1578 FILLER_50_189
*1579 FILLER_50_195
*1580 FILLER_50_197
*1581 FILLER_50_209
*1582 FILLER_50_221
*1583 FILLER_50_233
*1584 FILLER_50_245
*1585 FILLER_50_251
*1586 FILLER_50_253
*1587 FILLER_50_265
*1588 FILLER_50_27
*1589 FILLER_50_277
*1590 FILLER_50_289
*1591 FILLER_50_29
*1592 FILLER_50_297
*1593 FILLER_50_3
*1594 FILLER_50_41
*1595 FILLER_50_53
*1596 FILLER_50_65
*1597 FILLER_50_77
*1598 FILLER_50_83
*1599 FILLER_50_85
*1600 FILLER_50_97
*1601 FILLER_51_105
*1602 FILLER_51_111
*1603 FILLER_51_113
*1604 FILLER_51_125
*1605 FILLER_51_137
*1606 FILLER_51_149
*1607 FILLER_51_15
*1608 FILLER_51_161
*1609 FILLER_51_167
*1610 FILLER_51_169
*1611 FILLER_51_181
*1612 FILLER_51_193
*1613 FILLER_51_205
*1614 FILLER_51_217
*1615 FILLER_51_223
*1616 FILLER_51_225
*1617 FILLER_51_237
*1618 FILLER_51_249
*1619 FILLER_51_261
*1620 FILLER_51_27
*1621 FILLER_51_273
*1622 FILLER_51_279
*1623 FILLER_51_281
*1624 FILLER_51_293
*1625 FILLER_51_3
*1626 FILLER_51_39
*1627 FILLER_51_51
*1628 FILLER_51_55
*1629 FILLER_51_57
*1630 FILLER_51_69
*1631 FILLER_51_81