*SPEF "ieee 1481-1999"
*DESIGN "stevenmburns_toplevel"
*DATE "11:11:11 Fri 11 11, 1111"
*VENDOR "OpenRCX"
*PROGRAM "Parallel Extraction"
*VERSION "1.0"
*DESIGN_FLOW "NAME_SCOPE LOCAL" "PIN_CAP NONE"
*DIVIDER /
*DELIMITER :
*BUS_DELIMITER []
*T_UNIT 1 NS
*C_UNIT 1 PF
*R_UNIT 1 OHM
*L_UNIT 1 HENRY

*NAME_MAP
*1 io_in[0]
*2 io_in[1]
*3 io_in[2]
*4 io_in[3]
*5 io_in[4]
*6 io_in[5]
*7 io_in[6]
*8 io_in[7]
*9 io_out[0]
*10 io_out[1]
*11 net4
*12 net5
*13 net6
*14 net7
*15 net8
*16 net9
*19 _000_
*20 _001_
*21 _002_
*22 _003_
*23 _004_
*24 _005_
*25 _006_
*26 _007_
*27 _008_
*28 _009_
*29 _010_
*30 _011_
*31 _012_
*32 _013_
*33 _014_
*34 _015_
*35 _016_
*36 _017_
*37 _018_
*38 _019_
*39 _020_
*40 _021_
*41 _022_
*42 _023_
*43 _024_
*44 _025_
*45 _026_
*46 _027_
*47 _028_
*48 _029_
*49 _030_
*50 _031_
*51 _032_
*52 _033_
*53 _034_
*54 _035_
*55 _036_
*56 _037_
*57 _038_
*58 _039_
*59 _040_
*60 _041_
*61 _042_
*62 _043_
*63 _044_
*64 _045_
*65 _046_
*66 _047_
*67 _048_
*68 _049_
*69 _050_
*70 _051_
*71 _052_
*72 _053_
*73 _054_
*74 _055_
*75 _056_
*76 _057_
*77 _058_
*78 _059_
*79 _060_
*80 _061_
*81 _062_
*82 _063_
*83 _064_
*84 _065_
*85 _066_
*86 _067_
*87 _068_
*88 _069_
*89 _070_
*90 _071_
*91 _072_
*92 _073_
*93 _074_
*94 _075_
*95 _076_
*96 _077_
*97 _078_
*98 _079_
*99 _080_
*100 _081_
*101 _082_
*102 _083_
*103 _084_
*104 _085_
*105 _086_
*106 _087_
*107 _088_
*108 _089_
*109 _090_
*110 _091_
*111 _092_
*112 _093_
*113 _094_
*114 _095_
*115 _096_
*116 _097_
*117 _098_
*118 _099_
*119 _100_
*120 _101_
*121 _102_
*122 _103_
*123 _104_
*124 _105_
*125 _106_
*126 _107_
*127 _108_
*128 _109_
*129 _110_
*130 _111_
*131 _112_
*132 _113_
*133 _114_
*134 _115_
*135 _116_
*136 _117_
*137 _118_
*138 _119_
*139 _120_
*140 _121_
*141 _122_
*142 _123_
*143 _124_
*144 _125_
*145 _126_
*146 _127_
*147 _128_
*148 _129_
*149 _130_
*150 _131_
*151 _132_
*152 _133_
*153 _134_
*154 _135_
*155 _136_
*156 _137_
*157 _138_
*158 _139_
*159 _140_
*160 _141_
*161 _142_
*162 _143_
*163 _144_
*164 _145_
*165 _146_
*166 _147_
*167 _148_
*168 _149_
*169 _150_
*170 _151_
*171 _152_
*172 _153_
*173 _154_
*174 _155_
*175 _156_
*176 _157_
*177 _158_
*178 _159_
*179 _160_
*180 _161_
*181 _162_
*182 _163_
*183 _164_
*184 _165_
*185 _166_
*186 _167_
*187 _168_
*188 _169_
*189 _170_
*190 _171_
*191 _172_
*192 _173_
*193 _174_
*194 _175_
*195 _176_
*196 _177_
*197 _178_
*198 _179_
*199 _180_
*200 _181_
*201 _182_
*202 _183_
*203 _184_
*204 _185_
*205 _186_
*206 _187_
*207 _188_
*208 _189_
*209 _190_
*210 _191_
*211 _192_
*212 _193_
*213 _194_
*214 _195_
*215 _196_
*216 _197_
*217 _198_
*218 _199_
*219 _200_
*220 _201_
*221 _202_
*222 _203_
*223 _204_
*224 _205_
*225 _206_
*226 _207_
*227 _208_
*228 _209_
*229 _210_
*230 _211_
*231 _212_
*232 _213_
*233 _214_
*234 _215_
*235 _216_
*236 _217_
*237 _218_
*238 _219_
*239 _220_
*240 _221_
*241 _222_
*242 _223_
*243 _224_
*244 _225_
*245 _226_
*246 _227_
*247 _228_
*248 _229_
*249 _230_
*250 _231_
*251 _232_
*252 _233_
*253 _234_
*254 _235_
*255 _236_
*256 _237_
*257 _238_
*258 _239_
*259 _240_
*260 _241_
*261 _242_
*262 _243_
*263 _244_
*264 _245_
*265 _246_
*266 _247_
*267 _248_
*268 _249_
*269 _250_
*270 _251_
*271 _252_
*272 _253_
*273 _254_
*274 _255_
*275 _256_
*276 _257_
*277 _258_
*278 _259_
*279 _260_
*280 _261_
*281 _262_
*282 _263_
*283 _264_
*284 _265_
*285 _266_
*286 _267_
*287 _268_
*288 _269_
*289 _270_
*290 _271_
*291 _272_
*292 _273_
*293 _274_
*294 _275_
*295 _276_
*296 _277_
*297 _278_
*298 _279_
*299 _280_
*300 _281_
*301 _282_
*302 _283_
*303 _284_
*304 _285_
*305 _286_
*306 _287_
*307 _288_
*308 _289_
*309 _290_
*310 _291_
*311 _292_
*312 _293_
*313 _294_
*314 _295_
*315 _296_
*316 _297_
*317 _298_
*318 _299_
*319 _300_
*320 _301_
*321 clknet_0_io_in[0]
*322 clknet_2_0__leaf_io_in[0]
*323 clknet_2_1__leaf_io_in[0]
*324 clknet_2_2__leaf_io_in[0]
*325 clknet_2_3__leaf_io_in[0]
*326 net1
*327 net2
*328 net3
*329 u0\._u_T\[10\]
*330 u0\._u_T\[11\]
*331 u0\._u_T\[12\]
*332 u0\._u_T\[1\]
*333 u0\._u_T\[2\]
*334 u0\._u_T\[3\]
*335 u0\._u_T\[4\]
*336 u0\._u_T\[5\]
*337 u0\._u_T\[6\]
*338 u0\._u_T\[7\]
*339 u0\._u_T\[8\]
*340 u0\._u_T\[9\]
*341 u0\._v_T\[10\]
*342 u0\._v_T\[11\]
*343 u0\._v_T\[12\]
*344 u0\._v_T\[1\]
*345 u0\._v_T\[2\]
*346 u0\._v_T\[3\]
*347 u0\._v_T\[4\]
*348 u0\._v_T\[5\]
*349 u0\._v_T\[6\]
*350 u0\._v_T\[7\]
*351 u0\._v_T\[8\]
*352 u0\._v_T\[9\]
*353 u0\.io_done
*354 u0\.u_mask_vec_0
*355 u0\.u_mask_vec_1
*356 u0\.u_mask_vec_10
*357 u0\.u_mask_vec_11
*358 u0\.u_mask_vec_2
*359 u0\.u_mask_vec_3
*360 u0\.u_mask_vec_4
*361 u0\.u_mask_vec_5
*362 u0\.u_mask_vec_6
*363 u0\.u_mask_vec_7
*364 u0\.u_mask_vec_8
*365 u0\.u_mask_vec_9
*366 ANTENNA_0
*367 ANTENNA_1
*368 ANTENNA_2
*369 ANTENNA_3
*370 ANTENNA_4
*371 FILLER_0_102
*372 FILLER_0_110
*373 FILLER_0_117
*374 FILLER_0_129
*375 FILLER_0_137
*376 FILLER_0_141
*377 FILLER_0_153
*378 FILLER_0_165
*379 FILLER_0_169
*380 FILLER_0_181
*381 FILLER_0_19
*382 FILLER_0_193
*383 FILLER_0_197
*384 FILLER_0_209
*385 FILLER_0_221
*386 FILLER_0_225
*387 FILLER_0_23
*388 FILLER_0_237
*389 FILLER_0_249
*390 FILLER_0_253
*391 FILLER_0_265
*392 FILLER_0_27
*393 FILLER_0_277
*394 FILLER_0_281
*395 FILLER_0_293
*396 FILLER_0_45
*397 FILLER_0_52
*398 FILLER_0_73
*399 FILLER_0_80
*400 FILLER_0_92
*401 FILLER_10_102
*402 FILLER_10_110
*403 FILLER_10_118
*404 FILLER_10_124
*405 FILLER_10_128
*406 FILLER_10_136
*407 FILLER_10_147
*408 FILLER_10_155
*409 FILLER_10_168
*410 FILLER_10_180
*411 FILLER_10_184
*412 FILLER_10_192
*413 FILLER_10_197
*414 FILLER_10_209
*415 FILLER_10_221
*416 FILLER_10_23
*417 FILLER_10_233
*418 FILLER_10_245
*419 FILLER_10_251
*420 FILLER_10_253
*421 FILLER_10_265
*422 FILLER_10_27
*423 FILLER_10_277
*424 FILLER_10_289
*425 FILLER_10_29
*426 FILLER_10_297
*427 FILLER_10_3
*428 FILLER_10_53
*429 FILLER_10_60
*430 FILLER_10_70
*431 FILLER_10_80
*432 FILLER_10_92
*433 FILLER_11_108
*434 FILLER_11_113
*435 FILLER_11_118
*436 FILLER_11_130
*437 FILLER_11_138
*438 FILLER_11_149
*439 FILLER_11_161
*440 FILLER_11_167
*441 FILLER_11_177
*442 FILLER_11_196
*443 FILLER_11_208
*444 FILLER_11_22
*445 FILLER_11_220
*446 FILLER_11_225
*447 FILLER_11_237
*448 FILLER_11_249
*449 FILLER_11_261
*450 FILLER_11_273
*451 FILLER_11_279
*452 FILLER_11_281
*453 FILLER_11_293
*454 FILLER_11_3
*455 FILLER_11_50
*456 FILLER_11_57
*457 FILLER_11_61
*458 FILLER_11_66
*459 FILLER_11_77
*460 FILLER_11_84
*461 FILLER_11_96
*462 FILLER_12_110
*463 FILLER_12_116
*464 FILLER_12_126
*465 FILLER_12_138
*466 FILLER_12_149
*467 FILLER_12_169
*468 FILLER_12_181
*469 FILLER_12_193
*470 FILLER_12_197
*471 FILLER_12_209
*472 FILLER_12_221
*473 FILLER_12_233
*474 FILLER_12_24
*475 FILLER_12_245
*476 FILLER_12_251
*477 FILLER_12_253
*478 FILLER_12_265
*479 FILLER_12_277
*480 FILLER_12_289
*481 FILLER_12_29
*482 FILLER_12_297
*483 FILLER_12_3
*484 FILLER_12_41
*485 FILLER_12_65
*486 FILLER_12_75
*487 FILLER_12_83
*488 FILLER_12_85
*489 FILLER_12_93
*490 FILLER_13_103
*491 FILLER_13_111
*492 FILLER_13_113
*493 FILLER_13_122
*494 FILLER_13_130
*495 FILLER_13_134
*496 FILLER_13_14
*497 FILLER_13_141
*498 FILLER_13_147
*499 FILLER_13_157
*500 FILLER_13_165
*501 FILLER_13_175
*502 FILLER_13_189
*503 FILLER_13_196
*504 FILLER_13_208
*505 FILLER_13_220
*506 FILLER_13_225
*507 FILLER_13_237
*508 FILLER_13_249
*509 FILLER_13_261
*510 FILLER_13_273
*511 FILLER_13_279
*512 FILLER_13_281
*513 FILLER_13_293
*514 FILLER_13_32
*515 FILLER_13_52
*516 FILLER_13_57
*517 FILLER_13_6
*518 FILLER_13_62
*519 FILLER_13_75
*520 FILLER_13_79
*521 FILLER_13_84
*522 FILLER_13_95
*523 FILLER_14_104
*524 FILLER_14_116
*525 FILLER_14_125
*526 FILLER_14_135
*527 FILLER_14_139
*528 FILLER_14_141
*529 FILLER_14_147
*530 FILLER_14_159
*531 FILLER_14_171
*532 FILLER_14_183
*533 FILLER_14_195
*534 FILLER_14_197
*535 FILLER_14_209
*536 FILLER_14_216
*537 FILLER_14_228
*538 FILLER_14_24
*539 FILLER_14_240
*540 FILLER_14_253
*541 FILLER_14_265
*542 FILLER_14_277
*543 FILLER_14_289
*544 FILLER_14_29
*545 FILLER_14_297
*546 FILLER_14_3
*547 FILLER_14_41
*548 FILLER_14_53
*549 FILLER_14_61
*550 FILLER_14_66
*551 FILLER_14_7
*552 FILLER_14_80
*553 FILLER_14_88
*554 FILLER_14_96
*555 FILLER_15_101
*556 FILLER_15_108
*557 FILLER_15_117
*558 FILLER_15_129
*559 FILLER_15_136
*560 FILLER_15_148
*561 FILLER_15_152
*562 FILLER_15_159
*563 FILLER_15_167
*564 FILLER_15_169
*565 FILLER_15_182
*566 FILLER_15_194
*567 FILLER_15_20
*568 FILLER_15_206
*569 FILLER_15_218
*570 FILLER_15_225
*571 FILLER_15_237
*572 FILLER_15_249
*573 FILLER_15_261
*574 FILLER_15_273
*575 FILLER_15_279
*576 FILLER_15_281
*577 FILLER_15_293
*578 FILLER_15_32
*579 FILLER_15_52
*580 FILLER_15_60
*581 FILLER_15_68
*582 FILLER_15_82
*583 FILLER_15_93
*584 FILLER_16_106
*585 FILLER_16_114
*586 FILLER_16_122
*587 FILLER_16_136
*588 FILLER_16_148
*589 FILLER_16_166
*590 FILLER_16_178
*591 FILLER_16_190
*592 FILLER_16_197
*593 FILLER_16_209
*594 FILLER_16_221
*595 FILLER_16_233
*596 FILLER_16_24
*597 FILLER_16_245
*598 FILLER_16_251
*599 FILLER_16_253
*600 FILLER_16_265
*601 FILLER_16_277
*602 FILLER_16_289
*603 FILLER_16_297
*604 FILLER_16_3
*605 FILLER_16_32
*606 FILLER_16_38
*607 FILLER_16_55
*608 FILLER_16_61
*609 FILLER_16_66
*610 FILLER_16_7
*611 FILLER_16_79
*612 FILLER_16_83
*613 FILLER_16_94
*614 FILLER_16_98
*615 FILLER_17_108
*616 FILLER_17_119
*617 FILLER_17_125
*618 FILLER_17_130
*619 FILLER_17_143
*620 FILLER_17_164
*621 FILLER_17_169
*622 FILLER_17_181
*623 FILLER_17_193
*624 FILLER_17_20
*625 FILLER_17_205
*626 FILLER_17_217
*627 FILLER_17_223
*628 FILLER_17_225
*629 FILLER_17_237
*630 FILLER_17_24
*631 FILLER_17_249
*632 FILLER_17_261
*633 FILLER_17_273
*634 FILLER_17_279
*635 FILLER_17_281
*636 FILLER_17_293
*637 FILLER_17_32
*638 FILLER_17_52
*639 FILLER_17_73
*640 FILLER_17_87
*641 FILLER_17_96
*642 FILLER_18_105
*643 FILLER_18_113
*644 FILLER_18_121
*645 FILLER_18_131
*646 FILLER_18_139
*647 FILLER_18_141
*648 FILLER_18_149
*649 FILLER_18_161
*650 FILLER_18_167
*651 FILLER_18_171
*652 FILLER_18_183
*653 FILLER_18_190
*654 FILLER_18_197
*655 FILLER_18_209
*656 FILLER_18_221
*657 FILLER_18_233
*658 FILLER_18_24
*659 FILLER_18_245
*660 FILLER_18_251
*661 FILLER_18_253
*662 FILLER_18_265
*663 FILLER_18_277
*664 FILLER_18_289
*665 FILLER_18_29
*666 FILLER_18_297
*667 FILLER_18_3
*668 FILLER_18_37
*669 FILLER_18_55
*670 FILLER_18_75
*671 FILLER_18_83
*672 FILLER_18_85
*673 FILLER_18_96
*674 FILLER_19_106
*675 FILLER_19_113
*676 FILLER_19_121
*677 FILLER_19_130
*678 FILLER_19_140
*679 FILLER_19_15
*680 FILLER_19_152
*681 FILLER_19_164
*682 FILLER_19_176
*683 FILLER_19_188
*684 FILLER_19_192
*685 FILLER_19_200
*686 FILLER_19_212
*687 FILLER_19_225
*688 FILLER_19_237
*689 FILLER_19_249
*690 FILLER_19_261
*691 FILLER_19_273
*692 FILLER_19_279
*693 FILLER_19_281
*694 FILLER_19_293
*695 FILLER_19_3
*696 FILLER_19_33
*697 FILLER_19_43
*698 FILLER_19_55
*699 FILLER_19_57
*700 FILLER_19_64
*701 FILLER_19_72
*702 FILLER_19_85
*703 FILLER_19_96
*704 FILLER_1_108
*705 FILLER_1_120
*706 FILLER_1_132
*707 FILLER_1_141
*708 FILLER_1_153
*709 FILLER_1_165
*710 FILLER_1_169
*711 FILLER_1_181
*712 FILLER_1_193
*713 FILLER_1_201
*714 FILLER_1_206
*715 FILLER_1_218
*716 FILLER_1_225
*717 FILLER_1_23
*718 FILLER_1_241
*719 FILLER_1_253
*720 FILLER_1_265
*721 FILLER_1_277
*722 FILLER_1_291
*723 FILLER_1_3
*724 FILLER_1_48
*725 FILLER_1_64
*726 FILLER_1_74
*727 FILLER_1_88
*728 FILLER_1_98
*729 FILLER_20_100
*730 FILLER_20_111
*731 FILLER_20_123
*732 FILLER_20_135
*733 FILLER_20_139
*734 FILLER_20_141
*735 FILLER_20_153
*736 FILLER_20_166
*737 FILLER_20_176
*738 FILLER_20_188
*739 FILLER_20_19
*740 FILLER_20_197
*741 FILLER_20_209
*742 FILLER_20_221
*743 FILLER_20_23
*744 FILLER_20_233
*745 FILLER_20_245
*746 FILLER_20_251
*747 FILLER_20_253
*748 FILLER_20_265
*749 FILLER_20_27
*750 FILLER_20_277
*751 FILLER_20_289
*752 FILLER_20_29
*753 FILLER_20_297
*754 FILLER_20_44
*755 FILLER_20_56
*756 FILLER_20_67
*757 FILLER_20_75
*758 FILLER_20_80
*759 FILLER_20_85
*760 FILLER_20_89
*761 FILLER_21_108
*762 FILLER_21_113
*763 FILLER_21_121
*764 FILLER_21_130
*765 FILLER_21_142
*766 FILLER_21_148
*767 FILLER_21_15
*768 FILLER_21_158
*769 FILLER_21_166
*770 FILLER_21_179
*771 FILLER_21_189
*772 FILLER_21_201
*773 FILLER_21_213
*774 FILLER_21_221
*775 FILLER_21_225
*776 FILLER_21_23
*777 FILLER_21_237
*778 FILLER_21_249
*779 FILLER_21_261
*780 FILLER_21_273
*781 FILLER_21_279
*782 FILLER_21_281
*783 FILLER_21_293
*784 FILLER_21_3
*785 FILLER_21_31
*786 FILLER_21_45
*787 FILLER_21_52
*788 FILLER_21_64
*789 FILLER_21_78
*790 FILLER_21_90
*791 FILLER_21_98
*792 FILLER_22_105
*793 FILLER_22_114
*794 FILLER_22_126
*795 FILLER_22_138
*796 FILLER_22_141
*797 FILLER_22_15
*798 FILLER_22_153
*799 FILLER_22_171
*800 FILLER_22_179
*801 FILLER_22_192
*802 FILLER_22_203
*803 FILLER_22_215
*804 FILLER_22_227
*805 FILLER_22_239
*806 FILLER_22_251
*807 FILLER_22_253
*808 FILLER_22_265
*809 FILLER_22_27
*810 FILLER_22_277
*811 FILLER_22_289
*812 FILLER_22_29
*813 FILLER_22_297
*814 FILLER_22_3
*815 FILLER_22_38
*816 FILLER_22_46
*817 FILLER_22_50
*818 FILLER_22_55
*819 FILLER_22_68
*820 FILLER_22_72
*821 FILLER_22_80
*822 FILLER_22_85
*823 FILLER_22_89
*824 FILLER_22_97
*825 FILLER_23_108
*826 FILLER_23_113
*827 FILLER_23_119
*828 FILLER_23_128
*829 FILLER_23_141
*830 FILLER_23_149
*831 FILLER_23_15
*832 FILLER_23_156
*833 FILLER_23_169
*834 FILLER_23_177
*835 FILLER_23_183
*836 FILLER_23_191
*837 FILLER_23_194
*838 FILLER_23_202
*839 FILLER_23_214
*840 FILLER_23_222
*841 FILLER_23_225
*842 FILLER_23_237
*843 FILLER_23_249
*844 FILLER_23_261
*845 FILLER_23_273
*846 FILLER_23_279
*847 FILLER_23_281
*848 FILLER_23_293
*849 FILLER_23_3
*850 FILLER_23_30
*851 FILLER_23_34
*852 FILLER_23_41
*853 FILLER_23_45
*854 FILLER_23_52
*855 FILLER_23_63
*856 FILLER_23_71
*857 FILLER_23_82
*858 FILLER_23_95
*859 FILLER_24_103
*860 FILLER_24_113
*861 FILLER_24_123
*862 FILLER_24_135
*863 FILLER_24_139
*864 FILLER_24_15
*865 FILLER_24_150
*866 FILLER_24_162
*867 FILLER_24_174
*868 FILLER_24_186
*869 FILLER_24_194
*870 FILLER_24_197
*871 FILLER_24_209
*872 FILLER_24_221
*873 FILLER_24_233
*874 FILLER_24_245
*875 FILLER_24_251
*876 FILLER_24_253
*877 FILLER_24_265
*878 FILLER_24_27
*879 FILLER_24_277
*880 FILLER_24_289
*881 FILLER_24_29
*882 FILLER_24_297
*883 FILLER_24_3
*884 FILLER_24_33
*885 FILLER_24_37
*886 FILLER_24_45
*887 FILLER_24_50
*888 FILLER_24_62
*889 FILLER_24_72
*890 FILLER_24_79
*891 FILLER_24_83
*892 FILLER_24_95
*893 FILLER_25_106
*894 FILLER_25_122
*895 FILLER_25_134
*896 FILLER_25_146
*897 FILLER_25_15
*898 FILLER_25_158
*899 FILLER_25_166
*900 FILLER_25_169
*901 FILLER_25_181
*902 FILLER_25_191
*903 FILLER_25_201
*904 FILLER_25_213
*905 FILLER_25_221
*906 FILLER_25_225
*907 FILLER_25_237
*908 FILLER_25_249
*909 FILLER_25_261
*910 FILLER_25_27
*911 FILLER_25_273
*912 FILLER_25_279
*913 FILLER_25_281
*914 FILLER_25_293
*915 FILLER_25_3
*916 FILLER_25_39
*917 FILLER_25_49
*918 FILLER_25_55
*919 FILLER_25_66
*920 FILLER_25_75
*921 FILLER_25_92
*922 FILLER_25_96
*923 FILLER_26_101
*924 FILLER_26_107
*925 FILLER_26_114
*926 FILLER_26_126
*927 FILLER_26_136
*928 FILLER_26_141
*929 FILLER_26_15
*930 FILLER_26_153
*931 FILLER_26_165
*932 FILLER_26_177
*933 FILLER_26_189
*934 FILLER_26_195
*935 FILLER_26_197
*936 FILLER_26_209
*937 FILLER_26_221
*938 FILLER_26_233
*939 FILLER_26_245
*940 FILLER_26_251
*941 FILLER_26_253
*942 FILLER_26_265
*943 FILLER_26_27
*944 FILLER_26_277
*945 FILLER_26_289
*946 FILLER_26_29
*947 FILLER_26_297
*948 FILLER_26_3
*949 FILLER_26_41
*950 FILLER_26_53
*951 FILLER_26_65
*952 FILLER_26_76
*953 FILLER_26_88
*954 FILLER_27_108
*955 FILLER_27_113
*956 FILLER_27_126
*957 FILLER_27_138
*958 FILLER_27_15
*959 FILLER_27_150
*960 FILLER_27_160
*961 FILLER_27_172
*962 FILLER_27_180
*963 FILLER_27_188
*964 FILLER_27_200
*965 FILLER_27_213
*966 FILLER_27_221
*967 FILLER_27_225
*968 FILLER_27_23
*969 FILLER_27_237
*970 FILLER_27_249
*971 FILLER_27_261
*972 FILLER_27_273
*973 FILLER_27_279
*974 FILLER_27_281
*975 FILLER_27_29
*976 FILLER_27_293
*977 FILLER_27_3
*978 FILLER_27_36
*979 FILLER_27_40
*980 FILLER_27_50
*981 FILLER_27_66
*982 FILLER_27_84
*983 FILLER_27_88
*984 FILLER_27_94
*985 FILLER_28_106
*986 FILLER_28_117
*987 FILLER_28_121
*988 FILLER_28_132
*989 FILLER_28_145
*990 FILLER_28_15
*991 FILLER_28_157
*992 FILLER_28_169
*993 FILLER_28_179
*994 FILLER_28_191
*995 FILLER_28_195
*996 FILLER_28_197
*997 FILLER_28_209
*998 FILLER_28_221
*999 FILLER_28_233
*1000 FILLER_28_245
*1001 FILLER_28_251
*1002 FILLER_28_253
*1003 FILLER_28_265
*1004 FILLER_28_27
*1005 FILLER_28_277
*1006 FILLER_28_289
*1007 FILLER_28_297
*1008 FILLER_28_3
*1009 FILLER_28_32
*1010 FILLER_28_36
*1011 FILLER_28_41
*1012 FILLER_28_53
*1013 FILLER_28_61
*1014 FILLER_28_68
*1015 FILLER_28_79
*1016 FILLER_28_83
*1017 FILLER_28_94
*1018 FILLER_29_102
*1019 FILLER_29_110
*1020 FILLER_29_123
*1021 FILLER_29_131
*1022 FILLER_29_143
*1023 FILLER_29_15
*1024 FILLER_29_155
*1025 FILLER_29_167
*1026 FILLER_29_169
*1027 FILLER_29_181
*1028 FILLER_29_193
*1029 FILLER_29_205
*1030 FILLER_29_217
*1031 FILLER_29_223
*1032 FILLER_29_225
*1033 FILLER_29_237
*1034 FILLER_29_249
*1035 FILLER_29_261
*1036 FILLER_29_27
*1037 FILLER_29_273
*1038 FILLER_29_279
*1039 FILLER_29_281
*1040 FILLER_29_293
*1041 FILLER_29_3
*1042 FILLER_29_31
*1043 FILLER_29_41
*1044 FILLER_29_53
*1045 FILLER_29_57
*1046 FILLER_29_69
*1047 FILLER_29_81
*1048 FILLER_29_89
*1049 FILLER_29_93
*1050 FILLER_2_104
*1051 FILLER_2_112
*1052 FILLER_2_118
*1053 FILLER_2_125
*1054 FILLER_2_133
*1055 FILLER_2_139
*1056 FILLER_2_141
*1057 FILLER_2_149
*1058 FILLER_2_161
*1059 FILLER_2_165
*1060 FILLER_2_180
*1061 FILLER_2_192
*1062 FILLER_2_197
*1063 FILLER_2_209
*1064 FILLER_2_221
*1065 FILLER_2_233
*1066 FILLER_2_24
*1067 FILLER_2_245
*1068 FILLER_2_251
*1069 FILLER_2_253
*1070 FILLER_2_265
*1071 FILLER_2_277
*1072 FILLER_2_289
*1073 FILLER_2_29
*1074 FILLER_2_297
*1075 FILLER_2_3
*1076 FILLER_2_35
*1077 FILLER_2_52
*1078 FILLER_2_63
*1079 FILLER_2_71
*1080 FILLER_2_80
*1081 FILLER_2_85
*1082 FILLER_30_102
*1083 FILLER_30_114
*1084 FILLER_30_126
*1085 FILLER_30_138
*1086 FILLER_30_144
*1087 FILLER_30_15
*1088 FILLER_30_157
*1089 FILLER_30_169
*1090 FILLER_30_175
*1091 FILLER_30_182
*1092 FILLER_30_194
*1093 FILLER_30_197
*1094 FILLER_30_209
*1095 FILLER_30_221
*1096 FILLER_30_233
*1097 FILLER_30_245
*1098 FILLER_30_251
*1099 FILLER_30_253
*1100 FILLER_30_265
*1101 FILLER_30_27
*1102 FILLER_30_277
*1103 FILLER_30_289
*1104 FILLER_30_29
*1105 FILLER_30_297
*1106 FILLER_30_3
*1107 FILLER_30_41
*1108 FILLER_30_53
*1109 FILLER_30_65
*1110 FILLER_30_71
*1111 FILLER_30_80
*1112 FILLER_30_88
*1113 FILLER_30_94
*1114 FILLER_31_104
*1115 FILLER_31_113
*1116 FILLER_31_125
*1117 FILLER_31_130
*1118 FILLER_31_142
*1119 FILLER_31_15
*1120 FILLER_31_154
*1121 FILLER_31_166
*1122 FILLER_31_169
*1123 FILLER_31_181
*1124 FILLER_31_193
*1125 FILLER_31_205
*1126 FILLER_31_217
*1127 FILLER_31_223
*1128 FILLER_31_225
*1129 FILLER_31_237
*1130 FILLER_31_249
*1131 FILLER_31_261
*1132 FILLER_31_27
*1133 FILLER_31_273
*1134 FILLER_31_279
*1135 FILLER_31_281
*1136 FILLER_31_293
*1137 FILLER_31_3
*1138 FILLER_31_35
*1139 FILLER_31_47
*1140 FILLER_31_55
*1141 FILLER_31_57
*1142 FILLER_31_69
*1143 FILLER_31_78
*1144 FILLER_31_86
*1145 FILLER_31_94
*1146 FILLER_32_108
*1147 FILLER_32_115
*1148 FILLER_32_127
*1149 FILLER_32_139
*1150 FILLER_32_15
*1151 FILLER_32_154
*1152 FILLER_32_166
*1153 FILLER_32_178
*1154 FILLER_32_19
*1155 FILLER_32_190
*1156 FILLER_32_197
*1157 FILLER_32_209
*1158 FILLER_32_221
*1159 FILLER_32_23
*1160 FILLER_32_233
*1161 FILLER_32_245
*1162 FILLER_32_251
*1163 FILLER_32_253
*1164 FILLER_32_265
*1165 FILLER_32_27
*1166 FILLER_32_277
*1167 FILLER_32_289
*1168 FILLER_32_29
*1169 FILLER_32_297
*1170 FILLER_32_3
*1171 FILLER_32_41
*1172 FILLER_32_53
*1173 FILLER_32_63
*1174 FILLER_32_75
*1175 FILLER_32_83
*1176 FILLER_32_85
*1177 FILLER_32_96
*1178 FILLER_33_106
*1179 FILLER_33_120
*1180 FILLER_33_132
*1181 FILLER_33_144
*1182 FILLER_33_15
*1183 FILLER_33_156
*1184 FILLER_33_169
*1185 FILLER_33_181
*1186 FILLER_33_193
*1187 FILLER_33_205
*1188 FILLER_33_217
*1189 FILLER_33_223
*1190 FILLER_33_225
*1191 FILLER_33_237
*1192 FILLER_33_249
*1193 FILLER_33_261
*1194 FILLER_33_27
*1195 FILLER_33_273
*1196 FILLER_33_279
*1197 FILLER_33_281
*1198 FILLER_33_293
*1199 FILLER_33_3
*1200 FILLER_33_39
*1201 FILLER_33_51
*1202 FILLER_33_55
*1203 FILLER_33_57
*1204 FILLER_33_65
*1205 FILLER_33_74
*1206 FILLER_33_86
*1207 FILLER_33_98
*1208 FILLER_34_109
*1209 FILLER_34_121
*1210 FILLER_34_133
*1211 FILLER_34_139
*1212 FILLER_34_141
*1213 FILLER_34_15
*1214 FILLER_34_153
*1215 FILLER_34_165
*1216 FILLER_34_177
*1217 FILLER_34_189
*1218 FILLER_34_195
*1219 FILLER_34_197
*1220 FILLER_34_209
*1221 FILLER_34_221
*1222 FILLER_34_233
*1223 FILLER_34_245
*1224 FILLER_34_251
*1225 FILLER_34_253
*1226 FILLER_34_265
*1227 FILLER_34_27
*1228 FILLER_34_277
*1229 FILLER_34_289
*1230 FILLER_34_29
*1231 FILLER_34_297
*1232 FILLER_34_3
*1233 FILLER_34_41
*1234 FILLER_34_53
*1235 FILLER_34_65
*1236 FILLER_34_77
*1237 FILLER_34_83
*1238 FILLER_34_85
*1239 FILLER_34_97
*1240 FILLER_35_105
*1241 FILLER_35_111
*1242 FILLER_35_126
*1243 FILLER_35_138
*1244 FILLER_35_15
*1245 FILLER_35_150
*1246 FILLER_35_162
*1247 FILLER_35_169
*1248 FILLER_35_181
*1249 FILLER_35_193
*1250 FILLER_35_205
*1251 FILLER_35_217
*1252 FILLER_35_223
*1253 FILLER_35_225
*1254 FILLER_35_237
*1255 FILLER_35_249
*1256 FILLER_35_261
*1257 FILLER_35_27
*1258 FILLER_35_273
*1259 FILLER_35_279
*1260 FILLER_35_281
*1261 FILLER_35_293
*1262 FILLER_35_3
*1263 FILLER_35_39
*1264 FILLER_35_51
*1265 FILLER_35_55
*1266 FILLER_35_57
*1267 FILLER_35_69
*1268 FILLER_35_81
*1269 FILLER_35_93
*1270 FILLER_36_109
*1271 FILLER_36_121
*1272 FILLER_36_133
*1273 FILLER_36_139
*1274 FILLER_36_141
*1275 FILLER_36_15
*1276 FILLER_36_153
*1277 FILLER_36_165
*1278 FILLER_36_177
*1279 FILLER_36_189
*1280 FILLER_36_195
*1281 FILLER_36_197
*1282 FILLER_36_209
*1283 FILLER_36_221
*1284 FILLER_36_233
*1285 FILLER_36_245
*1286 FILLER_36_251
*1287 FILLER_36_253
*1288 FILLER_36_265
*1289 FILLER_36_27
*1290 FILLER_36_277
*1291 FILLER_36_289
*1292 FILLER_36_29
*1293 FILLER_36_297
*1294 FILLER_36_3
*1295 FILLER_36_41
*1296 FILLER_36_53
*1297 FILLER_36_65
*1298 FILLER_36_77
*1299 FILLER_36_83
*1300 FILLER_36_85
*1301 FILLER_36_97
*1302 FILLER_37_105
*1303 FILLER_37_111
*1304 FILLER_37_113
*1305 FILLER_37_125
*1306 FILLER_37_137
*1307 FILLER_37_149
*1308 FILLER_37_15
*1309 FILLER_37_161
*1310 FILLER_37_167
*1311 FILLER_37_169
*1312 FILLER_37_181
*1313 FILLER_37_193
*1314 FILLER_37_205
*1315 FILLER_37_217
*1316 FILLER_37_223
*1317 FILLER_37_225
*1318 FILLER_37_237
*1319 FILLER_37_249
*1320 FILLER_37_261
*1321 FILLER_37_27
*1322 FILLER_37_273
*1323 FILLER_37_279
*1324 FILLER_37_281
*1325 FILLER_37_293
*1326 FILLER_37_3
*1327 FILLER_37_39
*1328 FILLER_37_51
*1329 FILLER_37_55
*1330 FILLER_37_57
*1331 FILLER_37_69
*1332 FILLER_37_81
*1333 FILLER_37_93
*1334 FILLER_38_109
*1335 FILLER_38_121
*1336 FILLER_38_133
*1337 FILLER_38_139
*1338 FILLER_38_141
*1339 FILLER_38_15
*1340 FILLER_38_153
*1341 FILLER_38_165
*1342 FILLER_38_177
*1343 FILLER_38_189
*1344 FILLER_38_195
*1345 FILLER_38_197
*1346 FILLER_38_209
*1347 FILLER_38_221
*1348 FILLER_38_233
*1349 FILLER_38_245
*1350 FILLER_38_251
*1351 FILLER_38_253
*1352 FILLER_38_265
*1353 FILLER_38_27
*1354 FILLER_38_277
*1355 FILLER_38_289
*1356 FILLER_38_29
*1357 FILLER_38_297
*1358 FILLER_38_3
*1359 FILLER_38_41
*1360 FILLER_38_53
*1361 FILLER_38_65
*1362 FILLER_38_77
*1363 FILLER_38_83
*1364 FILLER_38_85
*1365 FILLER_38_97
*1366 FILLER_39_105
*1367 FILLER_39_111
*1368 FILLER_39_113
*1369 FILLER_39_125
*1370 FILLER_39_137
*1371 FILLER_39_149
*1372 FILLER_39_161
*1373 FILLER_39_167
*1374 FILLER_39_169
*1375 FILLER_39_18
*1376 FILLER_39_181
*1377 FILLER_39_193
*1378 FILLER_39_205
*1379 FILLER_39_217
*1380 FILLER_39_22
*1381 FILLER_39_223
*1382 FILLER_39_225
*1383 FILLER_39_237
*1384 FILLER_39_249
*1385 FILLER_39_261
*1386 FILLER_39_273
*1387 FILLER_39_279
*1388 FILLER_39_281
*1389 FILLER_39_293
*1390 FILLER_39_34
*1391 FILLER_39_46
*1392 FILLER_39_54
*1393 FILLER_39_57
*1394 FILLER_39_6
*1395 FILLER_39_69
*1396 FILLER_39_81
*1397 FILLER_39_93
*1398 FILLER_3_105
*1399 FILLER_3_111
*1400 FILLER_3_119
*1401 FILLER_3_126
*1402 FILLER_3_130
*1403 FILLER_3_137
*1404 FILLER_3_145
*1405 FILLER_3_15
*1406 FILLER_3_157
*1407 FILLER_3_165
*1408 FILLER_3_169
*1409 FILLER_3_181
*1410 FILLER_3_193
*1411 FILLER_3_205
*1412 FILLER_3_217
*1413 FILLER_3_223
*1414 FILLER_3_228
*1415 FILLER_3_240
*1416 FILLER_3_252
*1417 FILLER_3_264
*1418 FILLER_3_276
*1419 FILLER_3_281
*1420 FILLER_3_293
*1421 FILLER_3_3
*1422 FILLER_3_36
*1423 FILLER_3_44
*1424 FILLER_3_52
*1425 FILLER_3_57
*1426 FILLER_3_65
*1427 FILLER_3_78
*1428 FILLER_3_89
*1429 FILLER_3_98
*1430 FILLER_40_109
*1431 FILLER_40_121
*1432 FILLER_40_133
*1433 FILLER_40_139
*1434 FILLER_40_141
*1435 FILLER_40_15
*1436 FILLER_40_153
*1437 FILLER_40_165
*1438 FILLER_40_177
*1439 FILLER_40_189
*1440 FILLER_40_195
*1441 FILLER_40_197
*1442 FILLER_40_209
*1443 FILLER_40_221
*1444 FILLER_40_233
*1445 FILLER_40_245
*1446 FILLER_40_251
*1447 FILLER_40_253
*1448 FILLER_40_265
*1449 FILLER_40_27
*1450 FILLER_40_277
*1451 FILLER_40_289
*1452 FILLER_40_29
*1453 FILLER_40_297
*1454 FILLER_40_3
*1455 FILLER_40_41
*1456 FILLER_40_53
*1457 FILLER_40_65
*1458 FILLER_40_77
*1459 FILLER_40_83
*1460 FILLER_40_85
*1461 FILLER_40_97
*1462 FILLER_41_105
*1463 FILLER_41_111
*1464 FILLER_41_113
*1465 FILLER_41_125
*1466 FILLER_41_137
*1467 FILLER_41_149
*1468 FILLER_41_15
*1469 FILLER_41_161
*1470 FILLER_41_167
*1471 FILLER_41_169
*1472 FILLER_41_181
*1473 FILLER_41_193
*1474 FILLER_41_205
*1475 FILLER_41_217
*1476 FILLER_41_223
*1477 FILLER_41_225
*1478 FILLER_41_237
*1479 FILLER_41_249
*1480 FILLER_41_261
*1481 FILLER_41_27
*1482 FILLER_41_273
*1483 FILLER_41_279
*1484 FILLER_41_281
*1485 FILLER_41_293
*1486 FILLER_41_3
*1487 FILLER_41_39
*1488 FILLER_41_51
*1489 FILLER_41_55
*1490 FILLER_41_57
*1491 FILLER_41_69
*1492 FILLER_41_81
*1493 FILLER_41_93
*1494 FILLER_42_109
*1495 FILLER_42_121
*1496 FILLER_42_133
*1497 FILLER_42_139
*1498 FILLER_42_141
*1499 FILLER_42_153
*1500 FILLER_42_165
*1501 FILLER_42_177
*1502 FILLER_42_18
*1503 FILLER_42_189
*1504 FILLER_42_195
*1505 FILLER_42_197
*1506 FILLER_42_209
*1507 FILLER_42_221
*1508 FILLER_42_233
*1509 FILLER_42_245
*1510 FILLER_42_251
*1511 FILLER_42_253
*1512 FILLER_42_26
*1513 FILLER_42_265
*1514 FILLER_42_277
*1515 FILLER_42_289
*1516 FILLER_42_29
*1517 FILLER_42_297
*1518 FILLER_42_41
*1519 FILLER_42_53
*1520 FILLER_42_6
*1521 FILLER_42_65
*1522 FILLER_42_77
*1523 FILLER_42_83
*1524 FILLER_42_85
*1525 FILLER_42_97
*1526 FILLER_43_105
*1527 FILLER_43_111
*1528 FILLER_43_113
*1529 FILLER_43_125
*1530 FILLER_43_137
*1531 FILLER_43_149
*1532 FILLER_43_15
*1533 FILLER_43_161
*1534 FILLER_43_167
*1535 FILLER_43_169
*1536 FILLER_43_181
*1537 FILLER_43_193
*1538 FILLER_43_205
*1539 FILLER_43_217
*1540 FILLER_43_223
*1541 FILLER_43_225
*1542 FILLER_43_237
*1543 FILLER_43_249
*1544 FILLER_43_261
*1545 FILLER_43_27
*1546 FILLER_43_273
*1547 FILLER_43_279
*1548 FILLER_43_281
*1549 FILLER_43_293
*1550 FILLER_43_3
*1551 FILLER_43_39
*1552 FILLER_43_51
*1553 FILLER_43_55
*1554 FILLER_43_57
*1555 FILLER_43_69
*1556 FILLER_43_81
*1557 FILLER_43_93
*1558 FILLER_44_109
*1559 FILLER_44_121
*1560 FILLER_44_133
*1561 FILLER_44_139
*1562 FILLER_44_141
*1563 FILLER_44_15
*1564 FILLER_44_153
*1565 FILLER_44_165
*1566 FILLER_44_177
*1567 FILLER_44_189
*1568 FILLER_44_195
*1569 FILLER_44_197
*1570 FILLER_44_209
*1571 FILLER_44_221
*1572 FILLER_44_233
*1573 FILLER_44_245
*1574 FILLER_44_251
*1575 FILLER_44_253
*1576 FILLER_44_265
*1577 FILLER_44_27
*1578 FILLER_44_277
*1579 FILLER_44_289
*1580 FILLER_44_29
*1581 FILLER_44_297
*1582 FILLER_44_3
*1583 FILLER_44_41
*1584 FILLER_44_53
*1585 FILLER_44_65
*1586 FILLER_44_77
*1587 FILLER_44_83
*1588 FILLER_44_85
*1589 FILLER_44_97
*1590 FILLER_45_105
*1591 FILLER_45_111
*1592 FILLER_45_113
*1593 FILLER_45_125
*1594 FILLER_45_137
*1595 FILLER_45_149
*1596 FILLER_45_15
*1597 FILLER_45_161
*1598 FILLER_45_167
*1599 FILLER_45_169
*1600 FILLER_45_181
*1601 FILLER_45_193
*1602 FILLER_45_205
*1603 FILLER_45_217
*1604 FILLER_45_223
*1605 FILLER_45_225
*1606 FILLER_45_237
*1607 FILLER_45_249
*1608 FILLER_45_261
*1609 FILLER_45_27
*1610 FILLER_45_273
*1611 FILLER_45_279
*1612 FILLER_45_281
*1613 FILLER_45_293
*1614 FILLER_45_3
*1615 FILLER_45_39
*1616 FILLER_45_51
*1617 FILLER_45_55
*1618 FILLER_45_57
*1619 FILLER_45_69
*1620 FILLER_45_81
*1621 FILLER_45_93
*1622 FILLER_46_109
*1623 FILLER_46_121
*1624 FILLER_46_133
*1625 FILLER_46_139
*1626 FILLER_46_141
*1627 FILLER_46_153
*1628 FILLER_46_165
*1629 FILLER_46_177
*1630 FILLER_46_18
*1631 FILLER_46_189
*1632 FILLER_46_195
*1633 FILLER_46_197
*1634 FILLER_46_209
*1635 FILLER_46_221
*1636 FILLER_46_233
*1637 FILLER_46_245
*1638 FILLER_46_251
*1639 FILLER_46_253
*1640 FILLER_46_26
*1641 FILLER_46_265
*1642 FILLER_46_277
*1643 FILLER_46_289
*1644 FILLER_46_29
*1645 FILLER_46_297
*1646 FILLER_46_41
*1647 FILLER_46_53
*1648 FILLER_46_6
*1649 FILLER_46_65
*1650 FILLER_46_77
*1651 FILLER_46_83
*1652 FILLER_46_85
*1653 FILLER_46_97
*1654 FILLER_47_105
*1655 FILLER_47_111
*1656 FILLER_47_113
*1657 FILLER_47_125
*1658 FILLER_47_137
*1659 FILLER_47_149
*1660 FILLER_47_15
*1661 FILLER_47_161
*1662 FILLER_47_167
*1663 FILLER_47_169
*1664 FILLER_47_181
*1665 FILLER_47_193
*1666 FILLER_47_205
*1667 FILLER_47_217
*1668 FILLER_47_223
*1669 FILLER_47_225
*1670 FILLER_47_237
*1671 FILLER_47_249
*1672 FILLER_47_261
*1673 FILLER_47_27
*1674 FILLER_47_273
*1675 FILLER_47_279
*1676 FILLER_47_281
*1677 FILLER_47_293
*1678 FILLER_47_3
*1679 FILLER_47_39
*1680 FILLER_47_51
*1681 FILLER_47_55
*1682 FILLER_47_57
*1683 FILLER_47_69
*1684 FILLER_47_81
*1685 FILLER_47_93
*1686 FILLER_48_109
*1687 FILLER_48_121
*1688 FILLER_48_133
*1689 FILLER_48_139
*1690 FILLER_48_141
*1691 FILLER_48_15
*1692 FILLER_48_153
*1693 FILLER_48_165
*1694 FILLER_48_177