*SPEF "ieee 1481-1999"
*DESIGN "swalense_top"
*DATE "11:11:11 Fri 11 11, 1111"
*VENDOR "OpenRCX"
*PROGRAM "Parallel Extraction"
*VERSION "1.0"
*DESIGN_FLOW "NAME_SCOPE LOCAL" "PIN_CAP NONE"
*DIVIDER /
*DELIMITER :
*BUS_DELIMITER []
*T_UNIT 1 NS
*C_UNIT 1 PF
*R_UNIT 1 OHM
*L_UNIT 1 HENRY

*NAME_MAP
*1 io_in[0]
*2 io_in[1]
*3 io_in[2]
*4 io_in[3]
*5 io_in[4]
*6 io_in[5]
*7 io_in[6]
*8 io_in[7]
*9 io_out[0]
*10 io_out[1]
*11 io_out[2]
*12 io_out[3]
*13 io_out[4]
*14 io_out[5]
*15 io_out[6]
*16 io_out[7]
*19 _0000_
*20 _0001_
*21 _0002_
*22 _0003_
*23 _0004_
*24 _0005_
*25 _0006_
*26 _0007_
*27 _0008_
*28 _0009_
*29 _0010_
*30 _0011_
*31 _0012_
*32 _0013_
*33 _0014_
*34 _0015_
*35 _0016_
*36 _0017_
*37 _0018_
*38 _0019_
*39 _0020_
*40 _0021_
*41 _0022_
*42 _0023_
*43 _0024_
*44 _0025_
*45 _0026_
*46 _0027_
*47 _0028_
*48 _0029_
*49 _0030_
*50 _0031_
*51 _0032_
*52 _0033_
*53 _0034_
*54 _0035_
*55 _0036_
*56 _0037_
*57 _0038_
*58 _0039_
*59 _0040_
*60 _0041_
*61 _0042_
*62 _0043_
*63 _0044_
*64 _0045_
*65 _0046_
*66 _0047_
*67 _0048_
*68 _0049_
*69 _0050_
*70 _0051_
*71 _0052_
*72 _0053_
*73 _0054_
*74 _0055_
*75 _0056_
*76 _0057_
*77 _0058_
*78 _0059_
*79 _0060_
*80 _0061_
*81 _0062_
*82 _0063_
*83 _0064_
*84 _0065_
*85 _0066_
*86 _0067_
*87 _0068_
*88 _0069_
*89 _0070_
*90 _0071_
*91 _0072_
*92 _0073_
*93 _0074_
*94 _0075_
*95 _0076_
*96 _0077_
*97 _0078_
*98 _0079_
*99 _0080_
*100 _0081_
*101 _0082_
*102 _0083_
*103 _0084_
*104 _0085_
*105 _0086_
*106 _0087_
*107 _0088_
*108 _0089_
*109 _0090_
*110 _0091_
*111 _0092_
*112 _0093_
*113 _0094_
*114 _0095_
*115 _0096_
*116 _0097_
*117 _0098_
*118 _0099_
*119 _0100_
*120 _0101_
*121 _0102_
*122 _0103_
*123 _0104_
*124 _0105_
*125 _0106_
*126 _0107_
*127 _0108_
*128 _0109_
*129 _0110_
*130 _0111_
*131 _0112_
*132 _0113_
*133 _0114_
*134 _0115_
*135 _0116_
*136 _0117_
*137 _0118_
*138 _0119_
*139 _0120_
*140 _0121_
*141 _0122_
*142 _0123_
*143 _0124_
*144 _0125_
*145 _0126_
*146 _0127_
*147 _0128_
*148 _0129_
*149 _0130_
*150 _0131_
*151 _0132_
*152 _0133_
*153 _0134_
*154 _0135_
*155 _0136_
*156 _0137_
*157 _0138_
*158 _0139_
*159 _0140_
*160 _0141_
*161 _0142_
*162 _0143_
*163 _0144_
*164 _0145_
*165 _0146_
*166 _0147_
*167 _0148_
*168 _0149_
*169 _0150_
*170 _0151_
*171 _0152_
*172 _0153_
*173 _0154_
*174 _0155_
*175 _0156_
*176 _0157_
*177 _0158_
*178 _0159_
*179 _0160_
*180 _0161_
*181 _0162_
*182 _0163_
*183 _0164_
*184 _0165_
*185 _0166_
*186 _0167_
*187 _0168_
*188 _0169_
*189 _0170_
*190 _0171_
*191 _0172_
*192 _0173_
*193 _0174_
*194 _0175_
*195 _0176_
*196 _0177_
*197 _0178_
*198 _0179_
*199 _0180_
*200 _0181_
*201 _0182_
*202 _0183_
*203 _0184_
*204 _0185_
*205 _0186_
*206 _0187_
*207 _0188_
*208 _0189_
*209 _0190_
*210 _0191_
*211 _0192_
*212 _0193_
*213 _0194_
*214 _0195_
*215 _0196_
*216 _0197_
*217 _0198_
*218 _0199_
*219 _0200_
*220 _0201_
*221 _0202_
*222 _0203_
*223 _0204_
*224 _0205_
*225 _0206_
*226 _0207_
*227 _0208_
*228 _0209_
*229 _0210_
*230 _0211_
*231 _0212_
*232 _0213_
*233 _0214_
*234 _0215_
*235 _0216_
*236 _0217_
*237 _0218_
*238 _0219_
*239 _0220_
*240 _0221_
*241 _0222_
*242 _0223_
*243 _0224_
*244 _0225_
*245 _0226_
*246 _0227_
*247 _0228_
*248 _0229_
*249 _0230_
*250 _0231_
*251 _0232_
*252 _0233_
*253 _0234_
*254 _0235_
*255 _0236_
*256 _0237_
*257 _0238_
*258 _0239_
*259 _0240_
*260 _0241_
*261 _0242_
*262 _0243_
*263 _0244_
*264 _0245_
*265 _0246_
*266 _0247_
*267 _0248_
*268 _0249_
*269 _0250_
*270 _0251_
*271 _0252_
*272 _0253_
*273 _0254_
*274 _0255_
*275 _0256_
*276 _0257_
*277 _0258_
*278 _0259_
*279 _0260_
*280 _0261_
*281 _0262_
*282 _0263_
*283 _0264_
*284 _0265_
*285 _0266_
*286 _0267_
*287 _0268_
*288 _0269_
*289 _0270_
*290 _0271_
*291 _0272_
*292 _0273_
*293 _0274_
*294 _0275_
*295 _0276_
*296 _0277_
*297 _0278_
*298 _0279_
*299 _0280_
*300 _0281_
*301 _0282_
*302 _0283_
*303 _0284_
*304 _0285_
*305 _0286_
*306 _0287_
*307 _0288_
*308 _0289_
*309 _0290_
*310 _0291_
*311 _0292_
*312 _0293_
*313 _0294_
*314 _0295_
*315 _0296_
*316 _0297_
*317 _0298_
*318 _0299_
*319 _0300_
*320 _0301_
*321 _0302_
*322 _0303_
*323 _0304_
*324 _0305_
*325 _0306_
*326 _0307_
*327 _0308_
*328 _0309_
*329 _0310_
*330 _0311_
*331 _0312_
*332 _0313_
*333 _0314_
*334 _0315_
*335 _0316_
*336 _0317_
*337 _0318_
*338 _0319_
*339 _0320_
*340 _0321_
*341 _0322_
*342 _0323_
*343 _0324_
*344 _0325_
*345 _0326_
*346 _0327_
*347 _0328_
*348 _0329_
*349 _0330_
*350 _0331_
*351 _0332_
*352 _0333_
*353 _0334_
*354 _0335_
*355 _0336_
*356 _0337_
*357 _0338_
*358 _0339_
*359 _0340_
*360 _0341_
*361 _0342_
*362 _0343_
*363 _0344_
*364 _0345_
*365 _0346_
*366 _0347_
*367 _0348_
*368 _0349_
*369 _0350_
*370 _0351_
*371 _0352_
*372 _0353_
*373 _0354_
*374 _0355_
*375 _0356_
*376 _0357_
*377 _0358_
*378 _0359_
*379 _0360_
*380 _0361_
*381 _0362_
*382 _0363_
*383 _0364_
*384 _0365_
*385 _0366_
*386 _0367_
*387 _0368_
*388 _0369_
*389 _0370_
*390 _0371_
*391 _0372_
*392 _0373_
*393 _0374_
*394 _0375_
*395 _0376_
*396 _0377_
*397 _0378_
*398 _0379_
*399 _0380_
*400 _0381_
*401 _0382_
*402 _0383_
*403 _0384_
*404 _0385_
*405 _0386_
*406 _0387_
*407 _0388_
*408 _0389_
*409 _0390_
*410 _0391_
*411 _0392_
*412 _0393_
*413 _0394_
*414 _0395_
*415 _0396_
*416 _0397_
*417 _0398_
*418 _0399_
*419 _0400_
*420 _0401_
*421 _0402_
*422 _0403_
*423 _0404_
*424 _0405_
*425 _0406_
*426 _0407_
*427 _0408_
*428 _0409_
*429 _0410_
*430 _0411_
*431 _0412_
*432 _0413_
*433 _0414_
*434 _0415_
*435 _0416_
*436 _0417_
*437 _0418_
*438 _0419_
*439 _0420_
*440 _0421_
*441 _0422_
*442 _0423_
*443 _0424_
*444 _0425_
*445 _0426_
*446 _0427_
*447 _0428_
*448 _0429_
*449 _0430_
*450 _0431_
*451 _0432_
*452 _0433_
*453 _0434_
*454 _0435_
*455 _0436_
*456 _0437_
*457 _0438_
*458 _0439_
*459 _0440_
*460 _0441_
*461 _0442_
*462 _0443_
*463 _0444_
*464 _0445_
*465 _0446_
*466 _0447_
*467 _0448_
*468 _0449_
*469 clknet_0_io_in[0]
*470 clknet_3_0__leaf_io_in[0]
*471 clknet_3_1__leaf_io_in[0]
*472 clknet_3_2__leaf_io_in[0]
*473 clknet_3_3__leaf_io_in[0]
*474 clknet_3_4__leaf_io_in[0]
*475 clknet_3_5__leaf_io_in[0]
*476 clknet_3_6__leaf_io_in[0]
*477 clknet_3_7__leaf_io_in[0]
*478 dev\.counter\$1\.value\[0\]
*479 dev\.counter\$1\.value\[1\]
*480 dev\.counter\$1\.value\[2\]
*481 dev\.counter\$1\.value\[3\]
*482 dev\.counter\$1\.value\[4\]
*483 dev\.counter\$1\.value\[5\]
*484 dev\.counter\$1\.value\[6\]
*485 dev\.counter\$1\.value\[7\]
*486 dev\.counter\$1\.wrap
*487 dev\.decoder\.debounce
*488 dev\.decoder\.direction
*489 dev\.decoder\.prev_channels\[0\]
*490 dev\.decoder\.prev_channels\[1\]
*491 dev\.decoder\.strobe_x4
*492 dev\.gearbox\.enable
*493 dev\.gearbox\.period\[0\]
*494 dev\.gearbox\.period\[1\]
*495 dev\.gearbox\.period\[2\]
*496 dev\.gearbox\.period\[3\]
*497 dev\.gearbox\.period\[4\]
*498 dev\.gearbox\.period\[5\]
*499 dev\.gearbox\.period\[6\]
*500 dev\.gearbox\.period\[7\]
*501 dev\.gearbox\.threshold\[0\]
*502 dev\.gearbox\.threshold\[1\]
*503 dev\.gearbox\.threshold\[2\]
*504 dev\.gearbox\.threshold\[3\]
*505 dev\.gearbox\.threshold\[4\]
*506 dev\.pwm\.counter\[0\]
*507 dev\.pwm\.counter\[1\]
*508 dev\.pwm\.counter\[2\]
*509 dev\.pwm\.counter\[3\]
*510 dev\.pwm\.counter\[4\]
*511 dev\.pwm\.counter\[5\]
*512 dev\.pwm\.counter\[6\]
*513 dev\.pwm\.counter\[7\]
*514 dev\.pwm\.pwm_signal
*515 dev\.serial_out\.data\[0\]
*516 dev\.serial_out\.data\[10\]
*517 dev\.serial_out\.data\[11\]
*518 dev\.serial_out\.data\[12\]
*519 dev\.serial_out\.data\[13\]
*520 dev\.serial_out\.data\[1\]
*521 dev\.serial_out\.data\[2\]
*522 dev\.serial_out\.data\[3\]
*523 dev\.serial_out\.data\[4\]
*524 dev\.serial_out\.data\[5\]
*525 dev\.serial_out\.data\[6\]
*526 dev\.serial_out\.data\[7\]
*527 dev\.serial_out\.data\[8\]
*528 dev\.serial_out\.data\[9\]
*529 dev\.serial_out\.i\[0\]
*530 dev\.serial_out\.i\[1\]
*531 dev\.serial_out\.i\[2\]
*532 dev\.serial_out\.i\[3\]
*533 dev\.serial_out\.start
*534 dev\.spi\.\$sample\$s\$cs\$sync\$1
*535 dev\.spi\.\$sample\$s\$sck\$sync\$1
*536 dev\.spi\.busy
*537 dev\.spi\.data\[10\]
*538 dev\.spi\.data\[11\]
*539 dev\.spi\.data\[12\]
*540 dev\.spi\.data\[13\]
*541 dev\.spi\.data\[14\]
*542 dev\.spi\.data\[15\]
*543 dev\.spi\.data\[16\]
*544 dev\.spi\.data\[17\]
*545 dev\.spi\.data\[18\]
*546 dev\.spi\.data\[19\]
*547 dev\.spi\.data\[20\]
*548 dev\.spi\.data\[21\]
*549 dev\.spi\.data\[22\]
*550 dev\.spi\.data\[23\]
*551 dev\.spi\.data\[24\]
*552 dev\.spi\.data\[25\]
*553 dev\.spi\.data\[26\]
*554 dev\.spi\.data\[27\]
*555 dev\.spi\.data\[28\]
*556 dev\.spi\.data\[29\]
*557 dev\.spi\.data\[30\]
*558 dev\.spi\.data\[31\]
*559 dev\.spi\.data\[3\]
*560 dev\.spi\.data\[4\]
*561 dev\.spi\.data\[5\]
*562 dev\.spi\.data\[6\]
*563 dev\.spi\.data\[7\]
*564 dev\.spi\.data\[8\]
*565 dev\.spi\.data\[9\]
*566 dev\.spi\.i\[0\]
*567 dev\.spi\.i\[1\]
*568 dev\.spi\.i\[2\]
*569 dev\.spi\.i\[3\]
*570 dev\.spi\.i\[4\]
*571 dev\.spi\.i\[5\]
*572 dev\.spi\.strobe
*573 net1
*574 net2
*575 net3
*576 net4
*577 net5
*578 net6
*579 net7
*580 net8
*581 net9
*582 ANTENNA_0
*583 ANTENNA_1
*584 ANTENNA_2
*585 ANTENNA_3
*586 ANTENNA_4
*587 ANTENNA_5
*588 ANTENNA_6
*589 ANTENNA_7
*590 FILLER_0_102
*591 FILLER_0_110
*592 FILLER_0_129
*593 FILLER_0_136
*594 FILLER_0_157
*595 FILLER_0_164
*596 FILLER_0_176
*597 FILLER_0_180
*598 FILLER_0_188
*599 FILLER_0_200
*600 FILLER_0_208
*601 FILLER_0_212
*602 FILLER_0_225
*603 FILLER_0_237
*604 FILLER_0_24
*605 FILLER_0_249
*606 FILLER_0_253
*607 FILLER_0_265
*608 FILLER_0_277
*609 FILLER_0_281
*610 FILLER_0_29
*611 FILLER_0_293
*612 FILLER_0_3
*613 FILLER_0_34
*614 FILLER_0_52
*615 FILLER_0_57
*616 FILLER_0_63
*617 FILLER_0_7
*618 FILLER_0_80
*619 FILLER_0_85
*620 FILLER_10_108
*621 FILLER_10_116
*622 FILLER_10_125
*623 FILLER_10_136
*624 FILLER_10_149
*625 FILLER_10_159
*626 FILLER_10_168
*627 FILLER_10_176
*628 FILLER_10_182
*629 FILLER_10_192
*630 FILLER_10_197
*631 FILLER_10_20
*632 FILLER_10_205
*633 FILLER_10_217
*634 FILLER_10_229
*635 FILLER_10_241
*636 FILLER_10_249
*637 FILLER_10_253
*638 FILLER_10_265
*639 FILLER_10_277
*640 FILLER_10_289
*641 FILLER_10_29
*642 FILLER_10_297
*643 FILLER_10_35
*644 FILLER_10_52
*645 FILLER_10_76
*646 FILLER_10_85
*647 FILLER_10_91
*648 FILLER_11_104
*649 FILLER_11_113
*650 FILLER_11_120
*651 FILLER_11_132
*652 FILLER_11_139
*653 FILLER_11_15
*654 FILLER_11_151
*655 FILLER_11_156
*656 FILLER_11_163
*657 FILLER_11_167
*658 FILLER_11_172
*659 FILLER_11_184
*660 FILLER_11_196
*661 FILLER_11_200
*662 FILLER_11_204
*663 FILLER_11_216
*664 FILLER_11_225
*665 FILLER_11_235
*666 FILLER_11_247
*667 FILLER_11_259
*668 FILLER_11_271
*669 FILLER_11_279
*670 FILLER_11_281
*671 FILLER_11_293
*672 FILLER_11_3
*673 FILLER_11_36
*674 FILLER_11_48
*675 FILLER_11_57
*676 FILLER_11_79
*677 FILLER_11_87
*678 FILLER_12_112
*679 FILLER_12_125
*680 FILLER_12_137
*681 FILLER_12_146
*682 FILLER_12_154
*683 FILLER_12_159
*684 FILLER_12_167
*685 FILLER_12_171
*686 FILLER_12_177
*687 FILLER_12_181
*688 FILLER_12_185
*689 FILLER_12_19
*690 FILLER_12_193
*691 FILLER_12_197
*692 FILLER_12_208
*693 FILLER_12_216
*694 FILLER_12_228
*695 FILLER_12_23
*696 FILLER_12_240
*697 FILLER_12_253
*698 FILLER_12_265
*699 FILLER_12_27
*700 FILLER_12_277
*701 FILLER_12_289
*702 FILLER_12_297
*703 FILLER_12_33
*704 FILLER_12_41
*705 FILLER_12_58
*706 FILLER_12_80
*707 FILLER_12_85
*708 FILLER_12_93
*709 FILLER_13_108
*710 FILLER_13_113
*711 FILLER_13_12
*712 FILLER_13_125
*713 FILLER_13_133
*714 FILLER_13_142
*715 FILLER_13_160
*716 FILLER_13_178
*717 FILLER_13_186
*718 FILLER_13_193
*719 FILLER_13_205
*720 FILLER_13_219
*721 FILLER_13_223
*722 FILLER_13_225
*723 FILLER_13_237
*724 FILLER_13_249
*725 FILLER_13_261
*726 FILLER_13_273
*727 FILLER_13_279
*728 FILLER_13_281
*729 FILLER_13_293
*730 FILLER_13_3
*731 FILLER_13_32
*732 FILLER_13_52
*733 FILLER_13_57
*734 FILLER_13_69
*735 FILLER_13_87
*736 FILLER_13_91
*737 FILLER_14_104
*738 FILLER_14_112
*739 FILLER_14_123
*740 FILLER_14_136
*741 FILLER_14_141
*742 FILLER_14_145
*743 FILLER_14_158
*744 FILLER_14_167
*745 FILLER_14_181
*746 FILLER_14_190
*747 FILLER_14_197
*748 FILLER_14_205
*749 FILLER_14_212
*750 FILLER_14_224
*751 FILLER_14_236
*752 FILLER_14_24
*753 FILLER_14_248
*754 FILLER_14_253
*755 FILLER_14_265
*756 FILLER_14_277
*757 FILLER_14_289
*758 FILLER_14_29
*759 FILLER_14_297
*760 FILLER_14_3
*761 FILLER_14_33
*762 FILLER_14_51
*763 FILLER_14_7
*764 FILLER_14_75
*765 FILLER_14_83
*766 FILLER_14_85
*767 FILLER_15_105
*768 FILLER_15_111
*769 FILLER_15_113
*770 FILLER_15_117
*771 FILLER_15_126
*772 FILLER_15_135
*773 FILLER_15_143
*774 FILLER_15_15
*775 FILLER_15_154
*776 FILLER_15_164
*777 FILLER_15_174
*778 FILLER_15_203
*779 FILLER_15_210
*780 FILLER_15_222
*781 FILLER_15_231
*782 FILLER_15_243
*783 FILLER_15_251
*784 FILLER_15_264
*785 FILLER_15_276
*786 FILLER_15_281
*787 FILLER_15_293
*788 FILLER_15_3
*789 FILLER_15_32
*790 FILLER_15_52
*791 FILLER_15_57
*792 FILLER_15_63
*793 FILLER_15_80
*794 FILLER_15_88
*795 FILLER_16_109
*796 FILLER_16_123
*797 FILLER_16_136
*798 FILLER_16_144
*799 FILLER_16_156
*800 FILLER_16_166
*801 FILLER_16_174
*802 FILLER_16_180
*803 FILLER_16_186
*804 FILLER_16_19
*805 FILLER_16_192
*806 FILLER_16_197
*807 FILLER_16_205
*808 FILLER_16_217
*809 FILLER_16_229
*810 FILLER_16_23
*811 FILLER_16_241
*812 FILLER_16_249
*813 FILLER_16_253
*814 FILLER_16_265
*815 FILLER_16_27
*816 FILLER_16_277
*817 FILLER_16_289
*818 FILLER_16_297
*819 FILLER_16_39
*820 FILLER_16_59
*821 FILLER_16_63
*822 FILLER_16_80
*823 FILLER_16_85
*824 FILLER_16_97
*825 FILLER_17_105
*826 FILLER_17_111
*827 FILLER_17_113
*828 FILLER_17_123
*829 FILLER_17_131
*830 FILLER_17_145
*831 FILLER_17_161
*832 FILLER_17_167
*833 FILLER_17_178
*834 FILLER_17_185
*835 FILLER_17_191
*836 FILLER_17_195
*837 FILLER_17_20
*838 FILLER_17_214
*839 FILLER_17_222
*840 FILLER_17_225
*841 FILLER_17_237
*842 FILLER_17_249
*843 FILLER_17_26
*844 FILLER_17_261
*845 FILLER_17_273
*846 FILLER_17_279
*847 FILLER_17_281
*848 FILLER_17_29
*849 FILLER_17_293
*850 FILLER_17_47
*851 FILLER_17_55
*852 FILLER_17_57
*853 FILLER_17_69
*854 FILLER_17_93
*855 FILLER_18_103
*856 FILLER_18_111
*857 FILLER_18_118
*858 FILLER_18_127
*859 FILLER_18_136
*860 FILLER_18_144
*861 FILLER_18_153
*862 FILLER_18_162
*863 FILLER_18_170
*864 FILLER_18_175
*865 FILLER_18_181
*866 FILLER_18_189
*867 FILLER_18_195
*868 FILLER_18_197
*869 FILLER_18_205
*870 FILLER_18_213
*871 FILLER_18_225
*872 FILLER_18_237
*873 FILLER_18_24
*874 FILLER_18_249
*875 FILLER_18_253
*876 FILLER_18_265
*877 FILLER_18_277
*878 FILLER_18_289
*879 FILLER_18_29
*880 FILLER_18_297
*881 FILLER_18_3
*882 FILLER_18_49
*883 FILLER_18_57
*884 FILLER_18_7
*885 FILLER_18_75
*886 FILLER_18_83
*887 FILLER_18_85
*888 FILLER_19_108
*889 FILLER_19_113
*890 FILLER_19_123
*891 FILLER_19_131
*892 FILLER_19_137
*893 FILLER_19_148
*894 FILLER_19_159
*895 FILLER_19_167
*896 FILLER_19_169
*897 FILLER_19_181
*898 FILLER_19_188
*899 FILLER_19_19
*900 FILLER_19_200
*901 FILLER_19_211
*902 FILLER_19_218
*903 FILLER_19_233
*904 FILLER_19_245
*905 FILLER_19_257
*906 FILLER_19_269
*907 FILLER_19_27
*908 FILLER_19_277
*909 FILLER_19_281
*910 FILLER_19_293
*911 FILLER_19_45
*912 FILLER_19_53
*913 FILLER_19_57
*914 FILLER_19_75
*915 FILLER_19_96
*916 FILLER_1_108
*917 FILLER_1_129
*918 FILLER_1_149
*919 FILLER_1_15
*920 FILLER_1_160
*921 FILLER_1_179
*922 FILLER_1_192
*923 FILLER_1_200
*924 FILLER_1_208
*925 FILLER_1_215
*926 FILLER_1_223
*927 FILLER_1_233
*928 FILLER_1_245
*929 FILLER_1_257
*930 FILLER_1_269
*931 FILLER_1_277
*932 FILLER_1_281
*933 FILLER_1_293
*934 FILLER_1_3
*935 FILLER_1_32
*936 FILLER_1_52
*937 FILLER_1_57
*938 FILLER_1_63
*939 FILLER_1_70
*940 FILLER_1_91
*941 FILLER_1_99
*942 FILLER_20_101
*943 FILLER_20_113
*944 FILLER_20_129
*945 FILLER_20_137
*946 FILLER_20_146
*947 FILLER_20_150
*948 FILLER_20_159
*949 FILLER_20_167
*950 FILLER_20_173
*951 FILLER_20_179
*952 FILLER_20_184
*953 FILLER_20_188
*954 FILLER_20_192
*955 FILLER_20_197
*956 FILLER_20_209
*957 FILLER_20_221
*958 FILLER_20_233
*959 FILLER_20_24
*960 FILLER_20_245
*961 FILLER_20_251
*962 FILLER_20_253
*963 FILLER_20_265
*964 FILLER_20_277
*965 FILLER_20_289
*966 FILLER_20_29
*967 FILLER_20_297
*968 FILLER_20_3
*969 FILLER_20_35
*970 FILLER_20_52
*971 FILLER_20_60
*972 FILLER_20_7
*973 FILLER_20_80
*974 FILLER_21_105
*975 FILLER_21_111
*976 FILLER_21_113
*977 FILLER_21_120
*978 FILLER_21_132
*979 FILLER_21_144
*980 FILLER_21_15
*981 FILLER_21_162
*982 FILLER_21_169
*983 FILLER_21_177
*984 FILLER_21_186
*985 FILLER_21_198
*986 FILLER_21_210
*987 FILLER_21_220
*988 FILLER_21_232
*989 FILLER_21_239
*990 FILLER_21_251
*991 FILLER_21_263
*992 FILLER_21_275
*993 FILLER_21_279
*994 FILLER_21_281
*995 FILLER_21_293
*996 FILLER_21_3
*997 FILLER_21_36
*998 FILLER_21_48
*999 FILLER_21_57
*1000 FILLER_21_69
*1001 FILLER_21_93
*1002 FILLER_22_101
*1003 FILLER_22_120
*1004 FILLER_22_127
*1005 FILLER_22_135
*1006 FILLER_22_139
*1007 FILLER_22_141
*1008 FILLER_22_149
*1009 FILLER_22_161
*1010 FILLER_22_173
*1011 FILLER_22_185
*1012 FILLER_22_193
*1013 FILLER_22_197
*1014 FILLER_22_209
*1015 FILLER_22_221
*1016 FILLER_22_23
*1017 FILLER_22_233
*1018 FILLER_22_245
*1019 FILLER_22_251
*1020 FILLER_22_253
*1021 FILLER_22_265
*1022 FILLER_22_27
*1023 FILLER_22_277
*1024 FILLER_22_289
*1025 FILLER_22_29
*1026 FILLER_22_297
*1027 FILLER_22_3
*1028 FILLER_22_35
*1029 FILLER_22_52
*1030 FILLER_22_72
*1031 FILLER_23_104
*1032 FILLER_23_113
*1033 FILLER_23_125
*1034 FILLER_23_133
*1035 FILLER_23_151
*1036 FILLER_23_163
*1037 FILLER_23_167
*1038 FILLER_23_169
*1039 FILLER_23_181
*1040 FILLER_23_193
*1041 FILLER_23_205
*1042 FILLER_23_220
*1043 FILLER_23_225
*1044 FILLER_23_237
*1045 FILLER_23_249
*1046 FILLER_23_25
*1047 FILLER_23_261
*1048 FILLER_23_273
*1049 FILLER_23_279
*1050 FILLER_23_281
*1051 FILLER_23_29
*1052 FILLER_23_293
*1053 FILLER_23_3
*1054 FILLER_23_46
*1055 FILLER_23_54
*1056 FILLER_23_57
*1057 FILLER_23_69
*1058 FILLER_23_75
*1059 FILLER_23_92
*1060 FILLER_24_101
*1061 FILLER_24_107
*1062 FILLER_24_111
*1063 FILLER_24_118
*1064 FILLER_24_125
*1065 FILLER_24_137
*1066 FILLER_24_141
*1067 FILLER_24_149
*1068 FILLER_24_163
*1069 FILLER_24_173
*1070 FILLER_24_180
*1071 FILLER_24_192
*1072 FILLER_24_197
*1073 FILLER_24_20
*1074 FILLER_24_209
*1075 FILLER_24_221
*1076 FILLER_24_233
*1077 FILLER_24_245
*1078 FILLER_24_251
*1079 FILLER_24_253
*1080 FILLER_24_265
*1081 FILLER_24_277
*1082 FILLER_24_289
*1083 FILLER_24_29
*1084 FILLER_24_297
*1085 FILLER_24_41
*1086 FILLER_24_69
*1087 FILLER_24_81
*1088 FILLER_25_102
*1089 FILLER_25_110
*1090 FILLER_25_121
*1091 FILLER_25_129
*1092 FILLER_25_134
*1093 FILLER_25_146
*1094 FILLER_25_153
*1095 FILLER_25_165
*1096 FILLER_25_177
*1097 FILLER_25_189
*1098 FILLER_25_20
*1099 FILLER_25_201
*1100 FILLER_25_213
*1101 FILLER_25_221
*1102 FILLER_25_225
*1103 FILLER_25_237
*1104 FILLER_25_24
*1105 FILLER_25_249
*1106 FILLER_25_261
*1107 FILLER_25_273
*1108 FILLER_25_279
*1109 FILLER_25_281
*1110 FILLER_25_293
*1111 FILLER_25_41
*1112 FILLER_25_53
*1113 FILLER_25_57
*1114 FILLER_25_69
*1115 FILLER_25_73
*1116 FILLER_25_90
*1117 FILLER_26_106
*1118 FILLER_26_114
*1119 FILLER_26_124
*1120 FILLER_26_13
*1121 FILLER_26_136
*1122 FILLER_26_146
*1123 FILLER_26_158
*1124 FILLER_26_167
*1125 FILLER_26_179
*1126 FILLER_26_191
*1127 FILLER_26_195
*1128 FILLER_26_197
*1129 FILLER_26_20
*1130 FILLER_26_209
*1131 FILLER_26_221
*1132 FILLER_26_233
*1133 FILLER_26_245
*1134 FILLER_26_251
*1135 FILLER_26_253
*1136 FILLER_26_265
*1137 FILLER_26_277
*1138 FILLER_26_289
*1139 FILLER_26_29
*1140 FILLER_26_297
*1141 FILLER_26_52
*1142 FILLER_26_72
*1143 FILLER_26_85
*1144 FILLER_26_89
*1145 FILLER_27_101
*1146 FILLER_27_106
*1147 FILLER_27_113
*1148 FILLER_27_12
*1149 FILLER_27_123
*1150 FILLER_27_131
*1151 FILLER_27_138
*1152 FILLER_27_142
*1153 FILLER_27_146
*1154 FILLER_27_158
*1155 FILLER_27_16
*1156 FILLER_27_166
*1157 FILLER_27_169
*1158 FILLER_27_179
*1159 FILLER_27_191
*1160 FILLER_27_203
*1161 FILLER_27_215
*1162 FILLER_27_223
*1163 FILLER_27_225
*1164 FILLER_27_237
*1165 FILLER_27_249
*1166 FILLER_27_261
*1167 FILLER_27_273
*1168 FILLER_27_279
*1169 FILLER_27_281
*1170 FILLER_27_293
*1171 FILLER_27_3
*1172 FILLER_27_34
*1173 FILLER_27_42
*1174 FILLER_27_54
*1175 FILLER_27_57
*1176 FILLER_27_62
*1177 FILLER_27_69
*1178 FILLER_27_97
*1179 FILLER_28_106
*1180 FILLER_28_11
*1181 FILLER_28_116
*1182 FILLER_28_125
*1183 FILLER_28_134
*1184 FILLER_28_141
*1185 FILLER_28_149
*1186 FILLER_28_157
*1187 FILLER_28_163
*1188 FILLER_28_175
*1189 FILLER_28_187
*1190 FILLER_28_195
*1191 FILLER_28_197
*1192 FILLER_28_209
*1193 FILLER_28_221
*1194 FILLER_28_233
*1195 FILLER_28_24
*1196 FILLER_28_245
*1197 FILLER_28_251
*1198 FILLER_28_253
*1199 FILLER_28_265
*1200 FILLER_28_277
*1201 FILLER_28_289
*1202 FILLER_28_29
*1203 FILLER_28_297
*1204 FILLER_28_3
*1205 FILLER_28_39
*1206 FILLER_28_50
*1207 FILLER_28_60
*1208 FILLER_28_66
*1209 FILLER_28_73
*1210 FILLER_28_81
*1211 FILLER_28_88
*1212 FILLER_28_94
*1213 FILLER_28_98
*1214 FILLER_29_105
*1215 FILLER_29_111
*1216 FILLER_29_118
*1217 FILLER_29_126
*1218 FILLER_29_134
*1219 FILLER_29_142
*1220 FILLER_29_151
*1221 FILLER_29_163
*1222 FILLER_29_167
*1223 FILLER_29_169
*1224 FILLER_29_181
*1225 FILLER_29_19
*1226 FILLER_29_193
*1227 FILLER_29_205
*1228 FILLER_29_217
*1229 FILLER_29_223
*1230 FILLER_29_225
*1231 FILLER_29_23
*1232 FILLER_29_237
*1233 FILLER_29_249
*1234 FILLER_29_261
*1235 FILLER_29_273
*1236 FILLER_29_279
*1237 FILLER_29_281
*1238 FILLER_29_293
*1239 FILLER_29_3
*1240 FILLER_29_34
*1241 FILLER_29_51
*1242 FILLER_29_55
*1243 FILLER_29_60
*1244 FILLER_29_73
*1245 FILLER_29_83
*1246 FILLER_29_90
*1247 FILLER_29_94
*1248 FILLER_2_109
*1249 FILLER_2_129
*1250 FILLER_2_136
*1251 FILLER_2_148
*1252 FILLER_2_159
*1253 FILLER_2_168
*1254 FILLER_2_175
*1255 FILLER_2_182
*1256 FILLER_2_186
*1257 FILLER_2_190
*1258 FILLER_2_197
*1259 FILLER_2_209
*1260 FILLER_2_22
*1261 FILLER_2_221
*1262 FILLER_2_227
*1263 FILLER_2_239
*1264 FILLER_2_251
*1265 FILLER_2_253
*1266 FILLER_2_265
*1267 FILLER_2_277
*1268 FILLER_2_289
*1269 FILLER_2_29
*1270 FILLER_2_297
*1271 FILLER_2_3
*1272 FILLER_2_48
*1273 FILLER_2_60
*1274 FILLER_2_80
*1275 FILLER_2_85
*1276 FILLER_2_89
*1277 FILLER_30_105
*1278 FILLER_30_113
*1279 FILLER_30_119
*1280 FILLER_30_128
*1281 FILLER_30_13
*1282 FILLER_30_144
*1283 FILLER_30_148
*1284 FILLER_30_156
*1285 FILLER_30_168
*1286 FILLER_30_176
*1287 FILLER_30_189
*1288 FILLER_30_19
*1289 FILLER_30_195
*1290 FILLER_30_197
*1291 FILLER_30_209
*1292 FILLER_30_221
*1293 FILLER_30_233
*1294 FILLER_30_24
*1295 FILLER_30_245
*1296 FILLER_30_251
*1297 FILLER_30_253
*1298 FILLER_30_265
*1299 FILLER_30_277
*1300 FILLER_30_289
*1301 FILLER_30_297
*1302 FILLER_30_3
*1303 FILLER_30_39
*1304 FILLER_30_47
*1305 FILLER_30_54
*1306 FILLER_30_66
*1307 FILLER_30_74
*1308 FILLER_30_80
*1309 FILLER_30_90
*1310 FILLER_31_105
*1311 FILLER_31_111
*1312 FILLER_31_113
*1313 FILLER_31_123
*1314 FILLER_31_131
*1315 FILLER_31_137
*1316 FILLER_31_149
*1317 FILLER_31_16
*1318 FILLER_31_161
*1319 FILLER_31_167
*1320 FILLER_31_169
*1321 FILLER_31_175
*1322 FILLER_31_187
*1323 FILLER_31_199
*1324 FILLER_31_211
*1325 FILLER_31_223
*1326 FILLER_31_225
*1327 FILLER_31_23
*1328 FILLER_31_237
*1329 FILLER_31_249
*1330 FILLER_31_261
*1331 FILLER_31_273
*1332 FILLER_31_279
*1333 FILLER_31_281
*1334 FILLER_31_293
*1335 FILLER_31_3
*1336 FILLER_31_37
*1337 FILLER_31_52
*1338 FILLER_31_62
*1339 FILLER_31_66
*1340 FILLER_31_75
*1341 FILLER_31_82
*1342 FILLER_31_94
*1343 FILLER_32_109
*1344 FILLER_32_120
*1345 FILLER_32_129
*1346 FILLER_32_137
*1347 FILLER_32_141
*1348 FILLER_32_152
*1349 FILLER_32_164
*1350 FILLER_32_176
*1351 FILLER_32_188
*1352 FILLER_32_197
*1353 FILLER_32_209
*1354 FILLER_32_221
*1355 FILLER_32_233
*1356 FILLER_32_24
*1357 FILLER_32_245
*1358 FILLER_32_251
*1359 FILLER_32_253
*1360 FILLER_32_265
*1361 FILLER_32_277
*1362 FILLER_32_289
*1363 FILLER_32_297
*1364 FILLER_32_3
*1365 FILLER_32_38
*1366 FILLER_32_48
*1367 FILLER_32_56
*1368 FILLER_32_68
*1369 FILLER_32_72
*1370 FILLER_32_79
*1371 FILLER_32_83
*1372 FILLER_32_90
*1373 FILLER_32_98
*1374 FILLER_33_103
*1375 FILLER_33_111
*1376 FILLER_33_116
*1377 FILLER_33_122
*1378 FILLER_33_130
*1379 FILLER_33_142
*1380 FILLER_33_154
*1381 FILLER_33_16
*1382 FILLER_33_166
*1383 FILLER_33_169
*1384 FILLER_33_181
*1385 FILLER_33_193
*1386 FILLER_33_205
*1387 FILLER_33_217
*1388 FILLER_33_223
*1389 FILLER_33_225
*1390 FILLER_33_237
*1391 FILLER_33_249
*1392 FILLER_33_261
*1393 FILLER_33_273
*1394 FILLER_33_279
*1395 FILLER_33_28
*1396 FILLER_33_281
*1397 FILLER_33_293
*1398 FILLER_33_3
*1399 FILLER_33_36
*1400 FILLER_33_49
*1401 FILLER_33_55
*1402 FILLER_33_57
*1403 FILLER_33_61
*1404 FILLER_33_72
*1405 FILLER_33_80
*1406 FILLER_33_89
*1407 FILLER_33_9
*1408 FILLER_34_102
*1409 FILLER_34_108
*1410 FILLER_34_11
*1411 FILLER_34_116
*1412 FILLER_34_123
*1413 FILLER_34_131
*1414 FILLER_34_136
*1415 FILLER_34_141
*1416 FILLER_34_149
*1417 FILLER_34_161
*1418 FILLER_34_173
*1419 FILLER_34_185
*1420 FILLER_34_193
*1421 FILLER_34_197
*1422 FILLER_34_209
*1423 FILLER_34_221
*1424 FILLER_34_233
*1425 FILLER_34_24
*1426 FILLER_34_245
*1427 FILLER_34_251
*1428 FILLER_34_253
*1429 FILLER_34_265
*1430 FILLER_34_277
*1431 FILLER_34_289
*1432 FILLER_34_29
*1433 FILLER_34_297
*1434 FILLER_34_3
*1435 FILLER_34_36
*1436 FILLER_34_49
*1437 FILLER_34_57
*1438 FILLER_34_64
*1439 FILLER_34_78
*1440 FILLER_34_89
*1441 FILLER_35_101
*1442 FILLER_35_108
*1443 FILLER_35_11
*1444 FILLER_35_113
*1445 FILLER_35_118
*1446 FILLER_35_125
*1447 FILLER_35_135
*1448 FILLER_35_148
*1449 FILLER_35_160
*1450 FILLER_35_169
*1451 FILLER_35_18
*1452 FILLER_35_181
*1453 FILLER_35_193
*1454 FILLER_35_205
*1455 FILLER_35_217
*1456 FILLER_35_223
*1457 FILLER_35_225
*1458 FILLER_35_237
*1459 FILLER_35_249
*1460 FILLER_35_26
*1461 FILLER_35_261
*1462 FILLER_35_273
*1463 FILLER_35_279
*1464 FILLER_35_281
*1465 FILLER_35_293
*1466 FILLER_35_3
*1467 FILLER_35_37
*1468 FILLER_35_45
*1469 FILLER_35_52
*1470 FILLER_35_67
*1471 FILLER_35_71
*1472 FILLER_35_80
*1473 FILLER_35_87
*1474 FILLER_36_105
*1475 FILLER_36_112
*1476 FILLER_36_124
*1477 FILLER_36_136
*1478 FILLER_36_141
*1479 FILLER_36_15
*1480 FILLER_36_153
*1481 FILLER_36_165
*1482 FILLER_36_177
*1483 FILLER_36_189
*1484 FILLER_36_195
*1485 FILLER_36_197
*1486 FILLER_36_209
*1487 FILLER_36_221
*1488 FILLER_36_233
*1489 FILLER_36_24
*1490 FILLER_36_245
*1491 FILLER_36_251
*1492 FILLER_36_253
*1493 FILLER_36_265
*1494 FILLER_36_277
*1495 FILLER_36_289
*1496 FILLER_36_29
*1497 FILLER_36_297
*1498 FILLER_36_3
*1499 FILLER_36_37
*1500 FILLER_36_47
*1501 FILLER_36_54
*1502 FILLER_36_63
*1503 FILLER_36_74
*1504 FILLER_36_82
*1505 FILLER_36_93
*1506 FILLER_36_97
*1507 FILLER_37_101
*1508 FILLER_37_108
*1509 FILLER_37_118
*1510 FILLER_37_130
*1511 FILLER_37_139
*1512 FILLER_37_15
*1513 FILLER_37_151
*1514 FILLER_37_163
*1515 FILLER_37_167
*1516 FILLER_37_169
*1517 FILLER_37_181
*1518 FILLER_37_19
*1519 FILLER_37_193
*1520 FILLER_37_205
*1521 FILLER_37_217
*1522 FILLER_37_223
*1523 FILLER_37_225
*1524 FILLER_37_237
*1525 FILLER_37_249
*1526 FILLER_37_261
*1527 FILLER_37_273
*1528 FILLER_37_279
*1529 FILLER_37_281
*1530 FILLER_37_293
*1531 FILLER_37_3
*1532 FILLER_37_30
*1533 FILLER_37_36
*1534 FILLER_37_47
*1535 FILLER_37_55
*1536 FILLER_37_66
*1537 FILLER_37_72
*1538 FILLER_37_76
*1539 FILLER_37_86
*1540 FILLER_37_90
*1541 FILLER_38_115
*1542 FILLER_38_124
*1543 FILLER_38_136
*1544 FILLER_38_141
*1545 FILLER_38_15
*1546 FILLER_38_152
*1547 FILLER_38_164
*1548 FILLER_38_176
*1549 FILLER_38_188
*1550 FILLER_38_197
*1551 FILLER_38_209
*1552 FILLER_38_221
*1553 FILLER_38_233
*1554 FILLER_38_24
*1555 FILLER_38_245
*1556 FILLER_38_251
*1557 FILLER_38_253
*1558 FILLER_38_265
*1559 FILLER_38_277
*1560 FILLER_38_289
*1561 FILLER_38_297
*1562 FILLER_38_3
*1563 FILLER_38_37
*1564 FILLER_38_41
*1565 FILLER_38_52
*1566 FILLER_38_62
*1567 FILLER_38_66
*1568 FILLER_38_75
*1569 FILLER_38_83
*1570 FILLER_38_90
*1571 FILLER_38_97
*1572 FILLER_39_105
*1573 FILLER_39_111
*1574 FILLER_39_113
*1575 FILLER_39_124
*1576 FILLER_39_135
*1577 FILLER_39_147
*1578 FILLER_39_159
*1579 FILLER_39_167
*1580 FILLER_39_169
*1581 FILLER_39_17
*1582 FILLER_39_181
*1583 FILLER_39_193
*1584 FILLER_39_205
*1585 FILLER_39_217
*1586 FILLER_39_223
*1587 FILLER_39_225
*1588 FILLER_39_23
*1589 FILLER_39_237
*1590 FILLER_39_249
*1591 FILLER_39_261
*1592 FILLER_39_273
*1593 FILLER_39_279
*1594 FILLER_39_281
*1595 FILLER_39_293
*1596 FILLER_39_3
*1597 FILLER_39_30
*1598 FILLER_39_40
*1599 FILLER_39_48
*1600 FILLER_39_52
*1601 FILLER_39_65
*1602 FILLER_39_76
*1603 FILLER_39_87
*1604 FILLER_39_9
*1605 FILLER_39_96
*1606 FILLER_3_108
*1607 FILLER_3_129
*1608 FILLER_3_135
*1609 FILLER_3_143
*1610 FILLER_3_15
*1611 FILLER_3_151
*1612 FILLER_3_157
*1613 FILLER_3_164
*1614 FILLER_3_178
*1615 FILLER_3_182
*1616 FILLER_3_190
*1617 FILLER_3_198
*1618 FILLER_3_204
*1619 FILLER_3_211
*1620 FILLER_3_223
*1621 FILLER_3_225
*1622 FILLER_3_232
*1623 FILLER_3_240
*1624 FILLER_3_247
*1625 FILLER_3_259
*1626 FILLER_3_271
*1627 FILLER_3_279
*1628 FILLER_3_281
*1629 FILLER_3_293
*1630 FILLER_3_3
*1631 FILLER_3_36
*1632 FILLER_3_48
*1633 FILLER_3_57
*1634 FILLER_3_63
*1635 FILLER_3_69
*1636 FILLER_3_93
*1637 FILLER_40_101
*1638 FILLER_40_108
*1639 FILLER_40_11
*1640 FILLER_40_119
*1641 FILLER_40_127
*1642 FILLER_40_139
*1643 FILLER_40_144
*1644 FILLER_40_156
*1645 FILLER_40_168
*1646 FILLER_40_180
*1647 FILLER_40_19
*1648 FILLER_40_192
*1649 FILLER_40_197
*1650 FILLER_40_209
*1651 FILLER_40_221
*1652 FILLER_40_233
*1653 FILLER_40_245
*1654 FILLER_40_251
*1655 FILLER_40_253
*1656 FILLER_40_265
*1657 FILLER_40_27
*1658 FILLER_40_277
*1659 FILLER_40_289
*1660 FILLER_40_29
*1661 FILLER_40_297
*1662 FILLER_40_3
*1663 FILLER_40_35
*1664 FILLER_40_43
*1665 FILLER_40_53
*1666 FILLER_40_65
*1667 FILLER_40_7
*1668 FILLER_40_75
*1669 FILLER_40_83
*1670 FILLER_40_89
*1671 FILLER_41_108
*1672 FILLER_41_11
*1673 FILLER_41_123
*1674 FILLER_41_135
*1675 FILLER_41_147
*1676 FILLER_41_159
*1677 FILLER_41_167
*1678 FILLER_41_169
*1679 FILLER_41_181
*1680 FILLER_41_193