*SPEF "ieee 1481-1999"
*DESIGN "thezoq2_yafpga"
*DATE "11:11:11 Fri 11 11, 1111"
*VENDOR "OpenRCX"
*PROGRAM "Parallel Extraction"
*VERSION "1.0"
*DESIGN_FLOW "NAME_SCOPE LOCAL" "PIN_CAP NONE"
*DIVIDER /
*DELIMITER :
*BUS_DELIMITER []
*T_UNIT 1 NS
*C_UNIT 1 PF
*R_UNIT 1 OHM
*L_UNIT 1 HENRY

*NAME_MAP
*1 io_in[0]
*2 io_in[1]
*3 io_in[2]
*4 io_in[3]
*5 io_in[4]
*6 io_in[5]
*7 io_in[6]
*8 io_in[7]
*9 net47
*10 io_out[1]
*11 io_out[2]
*12 io_out[3]
*13 net48
*14 net49
*15 net50
*16 net51
*19 _000_
*20 _001_
*21 _002_
*22 _003_
*23 _004_
*24 _005_
*25 _006_
*26 _007_
*27 _008_
*28 _009_
*29 _010_
*30 _011_
*31 _012_
*32 _013_
*33 _014_
*34 _015_
*35 _016_
*36 _017_
*37 _018_
*38 _019_
*39 _020_
*40 _021_
*41 _022_
*42 _023_
*43 _024_
*44 _025_
*45 _026_
*46 _027_
*47 _028_
*48 _029_
*49 _030_
*50 _031_
*51 _032_
*52 _033_
*53 _034_
*54 _035_
*55 _036_
*56 _037_
*57 _038_
*58 _039_
*59 _040_
*60 _041_
*61 _042_
*62 _043_
*63 _044_
*64 _045_
*65 _046_
*66 _047_
*67 _048_
*68 _049_
*69 _050_
*70 _051_
*71 _052_
*72 _053_
*73 _054_
*74 _055_
*75 _056_
*76 _057_
*77 _058_
*78 _059_
*79 _060_
*80 _061_
*81 _062_
*82 _063_
*83 _064_
*84 _065_
*85 _066_
*86 _067_
*87 _068_
*88 _069_
*89 _070_
*90 _071_
*91 _072_
*92 _073_
*93 _074_
*94 _075_
*95 _076_
*96 _077_
*97 _078_
*98 _079_
*99 _080_
*100 _081_
*101 _082_
*102 _083_
*103 _084_
*104 _085_
*105 _086_
*106 _087_
*107 _088_
*108 _089_
*109 _090_
*110 _091_
*111 _092_
*112 _093_
*113 _094_
*114 _095_
*115 _096_
*116 _097_
*117 _098_
*118 _099_
*119 _100_
*120 _101_
*121 _102_
*122 _103_
*123 _104_
*124 _105_
*125 _106_
*126 _107_
*127 _108_
*128 _109_
*129 _110_
*130 _111_
*131 _112_
*132 _113_
*133 _114_
*134 _115_
*135 _116_
*136 _117_
*137 _118_
*138 _119_
*139 _120_
*140 _121_
*141 _122_
*142 _123_
*143 _124_
*144 _125_
*145 _126_
*146 _127_
*147 _128_
*148 _129_
*149 _130_
*150 _131_
*151 _132_
*152 _133_
*153 _134_
*154 _135_
*155 _136_
*156 _137_
*157 _138_
*158 _139_
*159 _140_
*160 _141_
*161 _142_
*162 _143_
*163 _144_
*164 _145_
*165 _146_
*166 _147_
*167 _148_
*168 _149_
*169 _150_
*170 _151_
*171 _152_
*172 _153_
*173 _154_
*174 _155_
*175 _156_
*176 _157_
*177 _158_
*178 _159_
*179 _160_
*180 _161_
*181 _162_
*182 _163_
*183 _164_
*184 _165_
*185 _166_
*186 _167_
*187 _168_
*188 _169_
*189 _170_
*190 _171_
*191 _172_
*192 _173_
*193 _174_
*194 _175_
*195 _176_
*196 _177_
*197 _178_
*198 _179_
*199 _180_
*200 _181_
*201 _182_
*202 _183_
*203 _184_
*204 _185_
*205 _186_
*206 _187_
*207 _188_
*208 _189_
*209 _190_
*210 _191_
*211 _192_
*212 _193_
*213 _194_
*214 _195_
*215 _196_
*216 _197_
*217 _198_
*218 _199_
*219 _200_
*220 _201_
*221 _202_
*222 _203_
*223 _204_
*224 _205_
*225 _206_
*226 _207_
*227 _208_
*228 _209_
*229 _210_
*230 _211_
*231 _212_
*232 _213_
*233 _214_
*234 _215_
*235 _216_
*236 _217_
*237 _218_
*238 _219_
*239 clknet_0_io_in[0]
*240 clknet_1_0__leaf_io_in[0]
*241 clknet_1_1__leaf_io_in[0]
*242 main\._e_292_i\._e_203_i\._e_459
*243 main\._e_292_i\._e_203_i\._e_468_i\._e_436_i\._e_30
*244 main\._e_292_i\._e_203_i\._e_468_i\._e_436_i\._e_36
*245 main\._e_292_i\._e_203_i\._e_471
*246 main\._e_292_i\._e_203_i\._e_480_i\._e_436_i\._e_36
*247 main\._e_292_i\._e_203_i\._e_483
*248 main\._e_292_i\._e_203_i\._e_494_i\._e_436_i\._e_36
*249 main\._e_292_i\._e_203_i\._e_499_i\._e_36
*250 main\._e_292_i\._e_219_i\._e_151_i\._e_126_i\._e_325_i\._e_36
*251 main\._e_292_i\._e_219_i\._e_151_i\._e_126_i\._e_330_i\._e_36
*252 main\._e_292_i\._e_219_i\._e_151_i\._e_126_i\._e_335_i\._e_36
*253 main\._e_292_i\._e_219_i\._e_151_i\._e_126_i\._e_362
*254 main\._e_292_i\._e_219_i\._e_151_i\._e_126_i\._e_370
*255 main\._e_292_i\._e_219_i\._e_151_i\._e_126_i\._e_378
*256 main\._e_292_i\._e_219_i\._e_151_i\._e_132_i\._e_325_i\._e_36
*257 main\._e_292_i\._e_219_i\._e_151_i\._e_132_i\._e_330_i\._e_36
*258 main\._e_292_i\._e_219_i\._e_151_i\._e_132_i\._e_335_i\._e_36
*259 main\._e_292_i\._e_219_i\._e_151_i\._e_139_i\._e_50_i\._e_36
*260 main\._e_292_i\._e_219_i\._e_151_i\._e_139_i\._e_55_i\._e_36
*261 main\._e_292_i\._e_219_i\._e_151_i\._e_139_i\._e_60_i\._e_36
*262 main\._e_292_i\._e_219_i\._e_151_i\._e_139_i\._e_65_i\._e_36
*263 main\._e_292_i\._e_219_i\._e_151_i\._e_139_i\._e_89
*264 main\._e_292_i\._e_219_i\._e_158_i\._e_126_i\._e_325_i\._e_36
*265 main\._e_292_i\._e_219_i\._e_158_i\._e_126_i\._e_330_i\._e_36
*266 main\._e_292_i\._e_219_i\._e_158_i\._e_126_i\._e_335_i\._e_36
*267 main\._e_292_i\._e_219_i\._e_158_i\._e_132_i\._e_325_i\._e_36
*268 main\._e_292_i\._e_219_i\._e_158_i\._e_132_i\._e_330_i\._e_36
*269 main\._e_292_i\._e_219_i\._e_158_i\._e_132_i\._e_335_i\._e_36
*270 main\._e_292_i\._e_219_i\._e_158_i\._e_139_i\._e_50_i\._e_36
*271 main\._e_292_i\._e_219_i\._e_158_i\._e_139_i\._e_55_i\._e_36
*272 main\._e_292_i\._e_219_i\._e_158_i\._e_139_i\._e_60_i\._e_36
*273 main\._e_292_i\._e_219_i\._e_158_i\._e_139_i\._e_65_i\._e_36
*274 main\._e_292_i\._e_219_i\._e_158_i\._e_139_i\._e_89
*275 main\._e_292_i\._e_219_i\._e_165_i\._e_126_i\._e_325_i\._e_36
*276 main\._e_292_i\._e_219_i\._e_165_i\._e_126_i\._e_330_i\._e_36
*277 main\._e_292_i\._e_219_i\._e_165_i\._e_126_i\._e_335_i\._e_36
*278 main\._e_292_i\._e_219_i\._e_165_i\._e_132_i\._e_325_i\._e_36
*279 main\._e_292_i\._e_219_i\._e_165_i\._e_132_i\._e_330_i\._e_36
*280 main\._e_292_i\._e_219_i\._e_165_i\._e_132_i\._e_335_i\._e_36
*281 main\._e_292_i\._e_219_i\._e_165_i\._e_139_i\._e_50_i\._e_36
*282 main\._e_292_i\._e_219_i\._e_165_i\._e_139_i\._e_55_i\._e_36
*283 main\._e_292_i\._e_219_i\._e_165_i\._e_139_i\._e_60_i\._e_36
*284 main\._e_292_i\._e_219_i\._e_165_i\._e_139_i\._e_65_i\._e_36
*285 main\._e_292_i\._e_219_i\._e_165_i\._e_139_i\._e_89
*286 main\._e_292_i\._e_229_i\._e_459
*287 main\._e_292_i\._e_229_i\._e_468_i\._e_436_i\._e_36
*288 main\._e_292_i\._e_229_i\._e_471
*289 main\._e_292_i\._e_229_i\._e_480_i\._e_436_i\._e_36
*290 main\._e_292_i\._e_229_i\._e_483
*291 main\._e_292_i\._e_229_i\._e_494_i\._e_436_i\._e_36
*292 main\._e_292_i\._e_229_i\._e_499_i\._e_36
*293 main\._e_292_i\._e_243_i\._e_151_i\._e_126_i\._e_325_i\._e_36
*294 main\._e_292_i\._e_243_i\._e_151_i\._e_126_i\._e_330_i\._e_36
*295 main\._e_292_i\._e_243_i\._e_151_i\._e_126_i\._e_335_i\._e_36
*296 main\._e_292_i\._e_243_i\._e_151_i\._e_132_i\._e_325_i\._e_36
*297 main\._e_292_i\._e_243_i\._e_151_i\._e_132_i\._e_330_i\._e_36
*298 main\._e_292_i\._e_243_i\._e_151_i\._e_132_i\._e_335_i\._e_36
*299 main\._e_292_i\._e_243_i\._e_151_i\._e_139_i\._e_50_i\._e_36
*300 main\._e_292_i\._e_243_i\._e_151_i\._e_139_i\._e_55_i\._e_36
*301 main\._e_292_i\._e_243_i\._e_151_i\._e_139_i\._e_60_i\._e_36
*302 main\._e_292_i\._e_243_i\._e_151_i\._e_139_i\._e_65_i\._e_36
*303 main\._e_292_i\._e_243_i\._e_151_i\._e_139_i\._e_89
*304 main\._e_292_i\._e_243_i\._e_158_i\._e_126_i\._e_325_i\._e_36
*305 main\._e_292_i\._e_243_i\._e_158_i\._e_126_i\._e_330_i\._e_36
*306 main\._e_292_i\._e_243_i\._e_158_i\._e_126_i\._e_335_i\._e_36
*307 main\._e_292_i\._e_243_i\._e_158_i\._e_132_i\._e_325_i\._e_36
*308 main\._e_292_i\._e_243_i\._e_158_i\._e_132_i\._e_330_i\._e_36
*309 main\._e_292_i\._e_243_i\._e_158_i\._e_132_i\._e_335_i\._e_36
*310 main\._e_292_i\._e_243_i\._e_158_i\._e_139_i\._e_50_i\._e_36
*311 main\._e_292_i\._e_243_i\._e_158_i\._e_139_i\._e_55_i\._e_36
*312 main\._e_292_i\._e_243_i\._e_158_i\._e_139_i\._e_60_i\._e_36
*313 main\._e_292_i\._e_243_i\._e_158_i\._e_139_i\._e_65_i\._e_36
*314 main\._e_292_i\._e_243_i\._e_158_i\._e_139_i\._e_89
*315 main\._e_292_i\._e_243_i\._e_165_i\._e_126_i\._e_325_i\._e_36
*316 main\._e_292_i\._e_243_i\._e_165_i\._e_126_i\._e_330_i\._e_36
*317 main\._e_292_i\._e_243_i\._e_165_i\._e_126_i\._e_335_i\._e_36
*318 main\._e_292_i\._e_243_i\._e_165_i\._e_132_i\._e_325_i\._e_36
*319 main\._e_292_i\._e_243_i\._e_165_i\._e_132_i\._e_330_i\._e_36
*320 main\._e_292_i\._e_243_i\._e_165_i\._e_132_i\._e_335_i\._e_36
*321 main\._e_292_i\._e_243_i\._e_165_i\._e_139_i\._e_50_i\._e_36
*322 main\._e_292_i\._e_243_i\._e_165_i\._e_139_i\._e_55_i\._e_36
*323 main\._e_292_i\._e_243_i\._e_165_i\._e_139_i\._e_60_i\._e_36
*324 main\._e_292_i\._e_243_i\._e_165_i\._e_139_i\._e_65_i\._e_36
*325 main\._e_292_i\._e_243_i\._e_165_i\._e_139_i\._e_89
*326 main\._e_292_i\._e_259_i\._e_459
*327 main\._e_292_i\._e_259_i\._e_468_i\._e_436_i\._e_36
*328 main\._e_292_i\._e_259_i\._e_471
*329 main\._e_292_i\._e_259_i\._e_480_i\._e_436_i\._e_36
*330 main\._e_292_i\._e_259_i\._e_483
*331 main\._e_292_i\._e_259_i\._e_494_i\._e_436_i\._e_36
*332 main\._e_292_i\.l1_n128_i\._e_151_i\._e_126_i\._e_325_i\._e_36
*333 main\._e_292_i\.l1_n128_i\._e_151_i\._e_126_i\._e_330_i\._e_36
*334 main\._e_292_i\.l1_n128_i\._e_151_i\._e_126_i\._e_335_i\._e_36
*335 main\._e_292_i\.l1_n128_i\._e_151_i\._e_132_i\._e_325_i\._e_36
*336 main\._e_292_i\.l1_n128_i\._e_151_i\._e_132_i\._e_330_i\._e_36
*337 main\._e_292_i\.l1_n128_i\._e_151_i\._e_132_i\._e_335_i\._e_36
*338 main\._e_292_i\.l1_n128_i\._e_151_i\._e_139_i\._e_50_i\._e_36
*339 main\._e_292_i\.l1_n128_i\._e_151_i\._e_139_i\._e_55_i\._e_36
*340 main\._e_292_i\.l1_n128_i\._e_151_i\._e_139_i\._e_60_i\._e_36
*341 main\._e_292_i\.l1_n128_i\._e_151_i\._e_139_i\._e_65_i\._e_36
*342 main\._e_292_i\.l1_n128_i\._e_158_i\._e_126_i\._e_325_i\._e_36
*343 main\._e_292_i\.l1_n128_i\._e_158_i\._e_126_i\._e_330_i\._e_36
*344 main\._e_292_i\.l1_n128_i\._e_158_i\._e_126_i\._e_335_i\._e_36
*345 main\._e_292_i\.l1_n128_i\._e_158_i\._e_132_i\._e_325_i\._e_36
*346 main\._e_292_i\.l1_n128_i\._e_158_i\._e_132_i\._e_330_i\._e_36
*347 main\._e_292_i\.l1_n128_i\._e_158_i\._e_132_i\._e_335_i\._e_36
*348 main\._e_292_i\.l1_n128_i\._e_158_i\._e_139_i\._e_50_i\._e_36
*349 main\._e_292_i\.l1_n128_i\._e_158_i\._e_139_i\._e_55_i\._e_36
*350 main\._e_292_i\.l1_n128_i\._e_158_i\._e_139_i\._e_60_i\._e_36
*351 main\._e_292_i\.l1_n128_i\._e_158_i\._e_139_i\._e_65_i\._e_36
*352 main\._e_292_i\.l1_n128_i\._e_165_i\._e_126_i\._e_325_i\._e_36
*353 main\._e_292_i\.l1_n128_i\._e_165_i\._e_126_i\._e_330_i\._e_36
*354 main\._e_292_i\.l1_n128_i\._e_165_i\._e_126_i\._e_335_i\._e_36
*355 main\._e_292_i\.l1_n128_i\._e_165_i\._e_132_i\._e_325_i\._e_36
*356 main\._e_292_i\.l1_n128_i\._e_165_i\._e_132_i\._e_330_i\._e_36
*357 main\._e_292_i\.l1_n128_i\._e_165_i\._e_132_i\._e_335_i\._e_36
*358 main\._e_292_i\.l1_n128_i\._e_165_i\._e_139_i\._e_50_i\._e_36
*359 main\._e_292_i\.l1_n128_i\._e_165_i\._e_139_i\._e_55_i\._e_36
*360 main\._e_292_i\.l1_n128_i\._e_165_i\._e_139_i\._e_60_i\._e_36
*361 net1
*362 net10
*363 net11
*364 net12
*365 net13
*366 net14
*367 net15
*368 net16
*369 net17
*370 net18
*371 net19
*372 net2
*373 net20
*374 net21
*375 net22
*376 net23
*377 net24
*378 net25
*379 net26
*380 net27
*381 net28
*382 net29
*383 net3
*384 net30
*385 net31
*386 net32
*387 net33
*388 net34
*389 net35
*390 net36
*391 net37
*392 net38
*393 net39
*394 net4
*395 net40
*396 net41
*397 net42
*398 net43
*399 net44
*400 net45
*401 net46
*402 net5
*403 net6
*404 net7
*405 net8
*406 net9
*407 ANTENNA_0
*408 FILLER_0_109
*409 FILLER_0_113
*410 FILLER_0_125
*411 FILLER_0_137
*412 FILLER_0_141
*413 FILLER_0_153
*414 FILLER_0_165
*415 FILLER_0_169
*416 FILLER_0_181
*417 FILLER_0_193
*418 FILLER_0_197
*419 FILLER_0_209
*420 FILLER_0_221
*421 FILLER_0_225
*422 FILLER_0_237
*423 FILLER_0_24
*424 FILLER_0_249
*425 FILLER_0_253
*426 FILLER_0_265
*427 FILLER_0_277
*428 FILLER_0_281
*429 FILLER_0_293
*430 FILLER_0_3
*431 FILLER_0_45
*432 FILLER_0_53
*433 FILLER_0_73
*434 FILLER_0_81
*435 FILLER_0_85
*436 FILLER_0_97
*437 FILLER_10_116
*438 FILLER_10_124
*439 FILLER_10_135
*440 FILLER_10_139
*441 FILLER_10_141
*442 FILLER_10_15
*443 FILLER_10_153
*444 FILLER_10_165
*445 FILLER_10_177
*446 FILLER_10_189
*447 FILLER_10_195
*448 FILLER_10_197
*449 FILLER_10_209
*450 FILLER_10_221
*451 FILLER_10_233
*452 FILLER_10_245
*453 FILLER_10_251
*454 FILLER_10_253
*455 FILLER_10_265
*456 FILLER_10_27
*457 FILLER_10_277
*458 FILLER_10_289
*459 FILLER_10_29
*460 FILLER_10_297
*461 FILLER_10_3
*462 FILLER_10_33
*463 FILLER_10_48
*464 FILLER_10_55
*465 FILLER_10_80
*466 FILLER_10_91
*467 FILLER_11_108
*468 FILLER_11_129
*469 FILLER_11_141
*470 FILLER_11_145
*471 FILLER_11_15
*472 FILLER_11_155
*473 FILLER_11_167
*474 FILLER_11_169
*475 FILLER_11_188
*476 FILLER_11_200
*477 FILLER_11_212
*478 FILLER_11_225
*479 FILLER_11_237
*480 FILLER_11_249
*481 FILLER_11_261
*482 FILLER_11_27
*483 FILLER_11_273
*484 FILLER_11_279
*485 FILLER_11_281
*486 FILLER_11_293
*487 FILLER_11_3
*488 FILLER_11_39
*489 FILLER_11_51
*490 FILLER_11_55
*491 FILLER_11_57
*492 FILLER_11_82
*493 FILLER_11_90
*494 FILLER_12_105
*495 FILLER_12_113
*496 FILLER_12_120
*497 FILLER_12_13
*498 FILLER_12_132
*499 FILLER_12_141
*500 FILLER_12_153
*501 FILLER_12_157
*502 FILLER_12_177
*503 FILLER_12_189
*504 FILLER_12_195
*505 FILLER_12_197
*506 FILLER_12_209
*507 FILLER_12_221
*508 FILLER_12_233
*509 FILLER_12_245
*510 FILLER_12_25
*511 FILLER_12_251
*512 FILLER_12_253
*513 FILLER_12_265
*514 FILLER_12_277
*515 FILLER_12_289
*516 FILLER_12_297
*517 FILLER_12_32
*518 FILLER_12_44
*519 FILLER_12_68
*520 FILLER_12_76
*521 FILLER_12_80
*522 FILLER_12_94
*523 FILLER_13_100
*524 FILLER_13_107
*525 FILLER_13_111
*526 FILLER_13_116
*527 FILLER_13_138
*528 FILLER_13_15
*529 FILLER_13_150
*530 FILLER_13_162
*531 FILLER_13_169
*532 FILLER_13_177
*533 FILLER_13_184
*534 FILLER_13_191
*535 FILLER_13_203
*536 FILLER_13_215
*537 FILLER_13_223
*538 FILLER_13_225
*539 FILLER_13_237
*540 FILLER_13_249
*541 FILLER_13_261
*542 FILLER_13_27
*543 FILLER_13_273
*544 FILLER_13_279
*545 FILLER_13_281
*546 FILLER_13_293
*547 FILLER_13_3
*548 FILLER_13_39
*549 FILLER_13_51
*550 FILLER_13_55
*551 FILLER_13_57
*552 FILLER_13_78
*553 FILLER_14_117
*554 FILLER_14_129
*555 FILLER_14_137
*556 FILLER_14_144
*557 FILLER_14_15
*558 FILLER_14_156
*559 FILLER_14_163
*560 FILLER_14_172
*561 FILLER_14_192
*562 FILLER_14_197
*563 FILLER_14_209
*564 FILLER_14_221
*565 FILLER_14_233
*566 FILLER_14_245
*567 FILLER_14_251
*568 FILLER_14_253
*569 FILLER_14_265
*570 FILLER_14_27
*571 FILLER_14_277
*572 FILLER_14_289
*573 FILLER_14_29
*574 FILLER_14_297
*575 FILLER_14_3
*576 FILLER_14_41
*577 FILLER_14_47
*578 FILLER_14_51
*579 FILLER_14_71
*580 FILLER_14_83
*581 FILLER_14_85
*582 FILLER_14_93
*583 FILLER_14_97
*584 FILLER_15_105
*585 FILLER_15_111
*586 FILLER_15_113
*587 FILLER_15_126
*588 FILLER_15_138
*589 FILLER_15_15
*590 FILLER_15_150
*591 FILLER_15_154
*592 FILLER_15_164
*593 FILLER_15_177
*594 FILLER_15_197
*595 FILLER_15_209
*596 FILLER_15_221
*597 FILLER_15_225
*598 FILLER_15_237
*599 FILLER_15_261
*600 FILLER_15_27
*601 FILLER_15_273
*602 FILLER_15_279
*603 FILLER_15_281
*604 FILLER_15_293
*605 FILLER_15_3
*606 FILLER_15_39
*607 FILLER_15_51
*608 FILLER_15_55
*609 FILLER_15_57
*610 FILLER_15_69
*611 FILLER_15_81
*612 FILLER_15_93
*613 FILLER_16_109
*614 FILLER_16_113
*615 FILLER_16_13
*616 FILLER_16_133
*617 FILLER_16_139
*618 FILLER_16_141
*619 FILLER_16_149
*620 FILLER_16_168
*621 FILLER_16_179
*622 FILLER_16_191
*623 FILLER_16_195
*624 FILLER_16_197
*625 FILLER_16_209
*626 FILLER_16_219
*627 FILLER_16_231
*628 FILLER_16_243
*629 FILLER_16_25
*630 FILLER_16_251
*631 FILLER_16_269
*632 FILLER_16_281
*633 FILLER_16_29
*634 FILLER_16_293
*635 FILLER_16_41
*636 FILLER_16_53
*637 FILLER_16_61
*638 FILLER_16_80
*639 FILLER_16_85
*640 FILLER_16_97
*641 FILLER_17_105
*642 FILLER_17_111
*643 FILLER_17_113
*644 FILLER_17_117
*645 FILLER_17_122
*646 FILLER_17_134
*647 FILLER_17_146
*648 FILLER_17_15
*649 FILLER_17_158
*650 FILLER_17_166
*651 FILLER_17_169
*652 FILLER_17_178
*653 FILLER_17_190
*654 FILLER_17_202
*655 FILLER_17_214
*656 FILLER_17_218
*657 FILLER_17_225
*658 FILLER_17_237
*659 FILLER_17_255
*660 FILLER_17_262
*661 FILLER_17_27
*662 FILLER_17_274
*663 FILLER_17_281
*664 FILLER_17_293
*665 FILLER_17_3
*666 FILLER_17_39
*667 FILLER_17_51
*668 FILLER_17_55
*669 FILLER_17_57
*670 FILLER_17_69
*671 FILLER_17_81
*672 FILLER_17_93
*673 FILLER_18_109
*674 FILLER_18_115
*675 FILLER_18_123
*676 FILLER_18_135
*677 FILLER_18_139
*678 FILLER_18_141
*679 FILLER_18_15
*680 FILLER_18_156
*681 FILLER_18_168
*682 FILLER_18_178
*683 FILLER_18_188
*684 FILLER_18_197
*685 FILLER_18_208
*686 FILLER_18_218
*687 FILLER_18_224
*688 FILLER_18_232
*689 FILLER_18_246
*690 FILLER_18_256
*691 FILLER_18_27
*692 FILLER_18_276
*693 FILLER_18_288
*694 FILLER_18_29
*695 FILLER_18_296
*696 FILLER_18_3
*697 FILLER_18_41
*698 FILLER_18_53
*699 FILLER_18_65
*700 FILLER_18_77
*701 FILLER_18_83
*702 FILLER_18_85
*703 FILLER_18_97
*704 FILLER_19_105
*705 FILLER_19_111
*706 FILLER_19_113
*707 FILLER_19_121
*708 FILLER_19_129
*709 FILLER_19_138
*710 FILLER_19_15
*711 FILLER_19_158
*712 FILLER_19_166
*713 FILLER_19_169
*714 FILLER_19_179
*715 FILLER_19_190
*716 FILLER_19_199
*717 FILLER_19_213
*718 FILLER_19_220
*719 FILLER_19_225
*720 FILLER_19_244
*721 FILLER_19_264
*722 FILLER_19_27
*723 FILLER_19_276
*724 FILLER_19_281
*725 FILLER_19_293
*726 FILLER_19_3
*727 FILLER_19_39
*728 FILLER_19_51
*729 FILLER_19_55
*730 FILLER_19_57
*731 FILLER_19_69
*732 FILLER_19_81
*733 FILLER_19_93
*734 FILLER_1_100
*735 FILLER_1_113
*736 FILLER_1_125
*737 FILLER_1_137
*738 FILLER_1_149
*739 FILLER_1_161
*740 FILLER_1_167
*741 FILLER_1_169
*742 FILLER_1_181
*743 FILLER_1_193
*744 FILLER_1_205
*745 FILLER_1_21
*746 FILLER_1_217
*747 FILLER_1_223
*748 FILLER_1_225
*749 FILLER_1_237
*750 FILLER_1_249
*751 FILLER_1_261
*752 FILLER_1_273
*753 FILLER_1_279
*754 FILLER_1_281
*755 FILLER_1_293
*756 FILLER_1_3
*757 FILLER_1_45
*758 FILLER_1_53
*759 FILLER_1_57
*760 FILLER_1_81
*761 FILLER_1_89
*762 FILLER_20_109
*763 FILLER_20_121
*764 FILLER_20_125
*765 FILLER_20_13
*766 FILLER_20_131
*767 FILLER_20_139
*768 FILLER_20_141
*769 FILLER_20_153
*770 FILLER_20_178
*771 FILLER_20_189
*772 FILLER_20_195
*773 FILLER_20_197
*774 FILLER_20_204
*775 FILLER_20_215
*776 FILLER_20_219
*777 FILLER_20_236
*778 FILLER_20_247
*779 FILLER_20_25
*780 FILLER_20_251
*781 FILLER_20_263
*782 FILLER_20_275
*783 FILLER_20_287
*784 FILLER_20_29
*785 FILLER_20_41
*786 FILLER_20_53
*787 FILLER_20_65
*788 FILLER_20_77
*789 FILLER_20_83
*790 FILLER_20_85
*791 FILLER_20_97
*792 FILLER_21_105
*793 FILLER_21_111
*794 FILLER_21_116
*795 FILLER_21_137
*796 FILLER_21_149
*797 FILLER_21_15
*798 FILLER_21_161
*799 FILLER_21_167
*800 FILLER_21_179
*801 FILLER_21_191
*802 FILLER_21_203
*803 FILLER_21_214
*804 FILLER_21_222
*805 FILLER_21_241
*806 FILLER_21_261
*807 FILLER_21_27
*808 FILLER_21_273
*809 FILLER_21_279
*810 FILLER_21_281
*811 FILLER_21_293
*812 FILLER_21_3
*813 FILLER_21_39
*814 FILLER_21_51
*815 FILLER_21_55
*816 FILLER_21_57
*817 FILLER_21_69
*818 FILLER_21_81
*819 FILLER_21_93
*820 FILLER_22_107
*821 FILLER_22_119
*822 FILLER_22_126
*823 FILLER_22_138
*824 FILLER_22_141
*825 FILLER_22_15
*826 FILLER_22_153
*827 FILLER_22_165
*828 FILLER_22_170
*829 FILLER_22_190
*830 FILLER_22_205
*831 FILLER_22_216
*832 FILLER_22_236
*833 FILLER_22_248
*834 FILLER_22_256
*835 FILLER_22_268
*836 FILLER_22_27
*837 FILLER_22_280
*838 FILLER_22_29
*839 FILLER_22_292
*840 FILLER_22_298
*841 FILLER_22_3
*842 FILLER_22_41
*843 FILLER_22_53
*844 FILLER_22_65
*845 FILLER_22_77
*846 FILLER_22_83
*847 FILLER_22_85
*848 FILLER_23_105
*849 FILLER_23_111
*850 FILLER_23_116
*851 FILLER_23_122
*852 FILLER_23_139
*853 FILLER_23_15
*854 FILLER_23_151
*855 FILLER_23_155
*856 FILLER_23_167
*857 FILLER_23_169
*858 FILLER_23_176
*859 FILLER_23_188
*860 FILLER_23_199
*861 FILLER_23_210
*862 FILLER_23_220
*863 FILLER_23_241
*864 FILLER_23_252
*865 FILLER_23_264
*866 FILLER_23_27
*867 FILLER_23_276
*868 FILLER_23_281
*869 FILLER_23_293
*870 FILLER_23_3
*871 FILLER_23_39
*872 FILLER_23_51
*873 FILLER_23_55
*874 FILLER_23_57
*875 FILLER_23_69
*876 FILLER_23_81
*877 FILLER_23_93
*878 FILLER_24_109
*879 FILLER_24_129
*880 FILLER_24_13
*881 FILLER_24_137
*882 FILLER_24_141
*883 FILLER_24_153
*884 FILLER_24_165
*885 FILLER_24_173
*886 FILLER_24_178
*887 FILLER_24_186
*888 FILLER_24_192
*889 FILLER_24_197
*890 FILLER_24_201
*891 FILLER_24_210
*892 FILLER_24_217
*893 FILLER_24_229
*894 FILLER_24_240
*895 FILLER_24_25
*896 FILLER_24_253
*897 FILLER_24_265
*898 FILLER_24_285
*899 FILLER_24_29
*900 FILLER_24_297
*901 FILLER_24_41
*902 FILLER_24_53
*903 FILLER_24_65
*904 FILLER_24_77
*905 FILLER_24_83
*906 FILLER_24_85
*907 FILLER_24_98
*908 FILLER_25_105
*909 FILLER_25_111
*910 FILLER_25_113
*911 FILLER_25_125
*912 FILLER_25_137
*913 FILLER_25_149
*914 FILLER_25_15
*915 FILLER_25_161
*916 FILLER_25_167
*917 FILLER_25_169
*918 FILLER_25_181
*919 FILLER_25_201
*920 FILLER_25_215
*921 FILLER_25_223
*922 FILLER_25_228
*923 FILLER_25_240
*924 FILLER_25_252
*925 FILLER_25_264
*926 FILLER_25_27
*927 FILLER_25_276
*928 FILLER_25_281
*929 FILLER_25_293
*930 FILLER_25_3
*931 FILLER_25_39
*932 FILLER_25_51
*933 FILLER_25_55
*934 FILLER_25_57
*935 FILLER_25_69
*936 FILLER_25_81
*937 FILLER_25_93
*938 FILLER_26_109
*939 FILLER_26_121
*940 FILLER_26_133
*941 FILLER_26_139
*942 FILLER_26_141
*943 FILLER_26_15
*944 FILLER_26_153
*945 FILLER_26_157
*946 FILLER_26_168
*947 FILLER_26_180
*948 FILLER_26_184
*949 FILLER_26_188
*950 FILLER_26_197
*951 FILLER_26_217
*952 FILLER_26_229
*953 FILLER_26_241
*954 FILLER_26_249
*955 FILLER_26_253
*956 FILLER_26_265
*957 FILLER_26_27
*958 FILLER_26_277
*959 FILLER_26_289
*960 FILLER_26_29
*961 FILLER_26_297
*962 FILLER_26_3
*963 FILLER_26_41
*964 FILLER_26_53
*965 FILLER_26_65
*966 FILLER_26_77
*967 FILLER_26_83
*968 FILLER_26_85
*969 FILLER_26_97
*970 FILLER_27_105
*971 FILLER_27_111
*972 FILLER_27_113
*973 FILLER_27_125
*974 FILLER_27_137
*975 FILLER_27_149
*976 FILLER_27_15
*977 FILLER_27_153
*978 FILLER_27_164
*979 FILLER_27_169
*980 FILLER_27_181
*981 FILLER_27_193
*982 FILLER_27_212
*983 FILLER_27_225
*984 FILLER_27_237
*985 FILLER_27_249
*986 FILLER_27_261
*987 FILLER_27_27
*988 FILLER_27_273
*989 FILLER_27_279
*990 FILLER_27_281
*991 FILLER_27_293
*992 FILLER_27_3
*993 FILLER_27_39
*994 FILLER_27_51
*995 FILLER_27_55
*996 FILLER_27_57
*997 FILLER_27_69
*998 FILLER_27_81
*999 FILLER_27_93
*1000 FILLER_28_109
*1001 FILLER_28_121
*1002 FILLER_28_133
*1003 FILLER_28_139
*1004 FILLER_28_147
*1005 FILLER_28_15
*1006 FILLER_28_159
*1007 FILLER_28_171
*1008 FILLER_28_183
*1009 FILLER_28_195
*1010 FILLER_28_197
*1011 FILLER_28_208
*1012 FILLER_28_216
*1013 FILLER_28_221
*1014 FILLER_28_233
*1015 FILLER_28_245
*1016 FILLER_28_251
*1017 FILLER_28_253
*1018 FILLER_28_265
*1019 FILLER_28_27
*1020 FILLER_28_277
*1021 FILLER_28_289
*1022 FILLER_28_29
*1023 FILLER_28_297
*1024 FILLER_28_3
*1025 FILLER_28_41
*1026 FILLER_28_53
*1027 FILLER_28_65
*1028 FILLER_28_77
*1029 FILLER_28_83
*1030 FILLER_28_85
*1031 FILLER_28_97
*1032 FILLER_29_105
*1033 FILLER_29_111
*1034 FILLER_29_113
*1035 FILLER_29_121
*1036 FILLER_29_129
*1037 FILLER_29_141
*1038 FILLER_29_15
*1039 FILLER_29_153
*1040 FILLER_29_165
*1041 FILLER_29_169
*1042 FILLER_29_181
*1043 FILLER_29_193
*1044 FILLER_29_205
*1045 FILLER_29_217
*1046 FILLER_29_223
*1047 FILLER_29_225
*1048 FILLER_29_237
*1049 FILLER_29_253
*1050 FILLER_29_260
*1051 FILLER_29_267
*1052 FILLER_29_27
*1053 FILLER_29_279
*1054 FILLER_29_281
*1055 FILLER_29_293
*1056 FILLER_29_3
*1057 FILLER_29_39
*1058 FILLER_29_51
*1059 FILLER_29_55
*1060 FILLER_29_57
*1061 FILLER_29_69
*1062 FILLER_29_81
*1063 FILLER_29_93
*1064 FILLER_2_101
*1065 FILLER_2_108
*1066 FILLER_2_120
*1067 FILLER_2_132
*1068 FILLER_2_144
*1069 FILLER_2_156
*1070 FILLER_2_168
*1071 FILLER_2_180
*1072 FILLER_2_192
*1073 FILLER_2_197
*1074 FILLER_2_209
*1075 FILLER_2_221
*1076 FILLER_2_233
*1077 FILLER_2_24
*1078 FILLER_2_245
*1079 FILLER_2_251
*1080 FILLER_2_253
*1081 FILLER_2_265
*1082 FILLER_2_277
*1083 FILLER_2_289
*1084 FILLER_2_297
*1085 FILLER_2_3
*1086 FILLER_2_45
*1087 FILLER_2_60
*1088 FILLER_2_80
*1089 FILLER_30_109
*1090 FILLER_30_120
*1091 FILLER_30_128
*1092 FILLER_30_136
*1093 FILLER_30_141
*1094 FILLER_30_15
*1095 FILLER_30_153
*1096 FILLER_30_165
*1097 FILLER_30_192
*1098 FILLER_30_197
*1099 FILLER_30_209
*1100 FILLER_30_221
*1101 FILLER_30_233
*1102 FILLER_30_241
*1103 FILLER_30_248
*1104 FILLER_30_261
*1105 FILLER_30_27
*1106 FILLER_30_281
*1107 FILLER_30_29
*1108 FILLER_30_293
*1109 FILLER_30_3
*1110 FILLER_30_41
*1111 FILLER_30_53
*1112 FILLER_30_65
*1113 FILLER_30_77
*1114 FILLER_30_83
*1115 FILLER_30_85
*1116 FILLER_30_97
*1117 FILLER_31_105
*1118 FILLER_31_111
*1119 FILLER_31_113
*1120 FILLER_31_125
*1121 FILLER_31_142
*1122 FILLER_31_152
*1123 FILLER_31_164
*1124 FILLER_31_169
*1125 FILLER_31_18
*1126 FILLER_31_181
*1127 FILLER_31_193
*1128 FILLER_31_205
*1129 FILLER_31_217
*1130 FILLER_31_223
*1131 FILLER_31_225
*1132 FILLER_31_229
*1133 FILLER_31_233
*1134 FILLER_31_253
*1135 FILLER_31_263
*1136 FILLER_31_275
*1137 FILLER_31_279
*1138 FILLER_31_281
*1139 FILLER_31_293
*1140 FILLER_31_30
*1141 FILLER_31_42
*1142 FILLER_31_54
*1143 FILLER_31_57
*1144 FILLER_31_6
*1145 FILLER_31_69
*1146 FILLER_31_81
*1147 FILLER_31_93
*1148 FILLER_32_109
*1149 FILLER_32_128
*1150 FILLER_32_141
*1151 FILLER_32_15
*1152 FILLER_32_158
*1153 FILLER_32_170
*1154 FILLER_32_182
*1155 FILLER_32_194
*1156 FILLER_32_197
*1157 FILLER_32_209
*1158 FILLER_32_221
*1159 FILLER_32_243
*1160 FILLER_32_251
*1161 FILLER_32_253
*1162 FILLER_32_27
*1163 FILLER_32_271
*1164 FILLER_32_283
*1165 FILLER_32_29
*1166 FILLER_32_295
*1167 FILLER_32_3
*1168 FILLER_32_41
*1169 FILLER_32_53
*1170 FILLER_32_65
*1171 FILLER_32_77
*1172 FILLER_32_83
*1173 FILLER_32_85
*1174 FILLER_32_97
*1175 FILLER_33_105
*1176 FILLER_33_111
*1177 FILLER_33_120
*1178 FILLER_33_132
*1179 FILLER_33_144
*1180 FILLER_33_15
*1181 FILLER_33_156
*1182 FILLER_33_169
*1183 FILLER_33_181
*1184 FILLER_33_193
*1185 FILLER_33_205
*1186 FILLER_33_213
*1187 FILLER_33_220
*1188 FILLER_33_231
*1189 FILLER_33_243
*1190 FILLER_33_261
*1191 FILLER_33_27
*1192 FILLER_33_273
*1193 FILLER_33_279
*1194 FILLER_33_281
*1195 FILLER_33_293
*1196 FILLER_33_3
*1197 FILLER_33_39
*1198 FILLER_33_51
*1199 FILLER_33_55
*1200 FILLER_33_57
*1201 FILLER_33_69
*1202 FILLER_33_81
*1203 FILLER_33_93
*1204 FILLER_34_125
*1205 FILLER_34_135
*1206 FILLER_34_139
*1207 FILLER_34_141
*1208 FILLER_34_15
*1209 FILLER_34_153
*1210 FILLER_34_165
*1211 FILLER_34_177
*1212 FILLER_34_189
*1213 FILLER_34_195
*1214 FILLER_34_197
*1215 FILLER_34_209
*1216 FILLER_34_217
*1217 FILLER_34_225
*1218 FILLER_34_234
*1219 FILLER_34_241
*1220 FILLER_34_249
*1221 FILLER_34_253
*1222 FILLER_34_265
*1223 FILLER_34_27
*1224 FILLER_34_277
*1225 FILLER_34_289
*1226 FILLER_34_29
*1227 FILLER_34_297
*1228 FILLER_34_3
*1229 FILLER_34_41
*1230 FILLER_34_53
*1231 FILLER_34_65
*1232 FILLER_34_77
*1233 FILLER_34_83
*1234 FILLER_34_85
*1235 FILLER_34_97
*1236 FILLER_35_108
*1237 FILLER_35_113
*1238 FILLER_35_121
*1239 FILLER_35_127
*1240 FILLER_35_134
*1241 FILLER_35_146
*1242 FILLER_35_15
*1243 FILLER_35_158
*1244 FILLER_35_166
*1245 FILLER_35_169
*1246 FILLER_35_181
*1247 FILLER_35_200
*1248 FILLER_35_209
*1249 FILLER_35_217
*1250 FILLER_35_223
*1251 FILLER_35_235
*1252 FILLER_35_257
*1253 FILLER_35_269
*1254 FILLER_35_27
*1255 FILLER_35_277
*1256 FILLER_35_281
*1257 FILLER_35_293
*1258 FILLER_35_3
*1259 FILLER_35_39
*1260 FILLER_35_51
*1261 FILLER_35_55
*1262 FILLER_35_57
*1263 FILLER_35_69
*1264 FILLER_35_81
*1265 FILLER_35_89
*1266 FILLER_36_119
*1267 FILLER_36_123
*1268 FILLER_36_130
*1269 FILLER_36_138
*1270 FILLER_36_141
*1271 FILLER_36_15
*1272 FILLER_36_153
*1273 FILLER_36_165
*1274 FILLER_36_177
*1275 FILLER_36_189
*1276 FILLER_36_195
*1277 FILLER_36_197
*1278 FILLER_36_209
*1279 FILLER_36_227
*1280 FILLER_36_247
*1281 FILLER_36_251
*1282 FILLER_36_253
*1283 FILLER_36_265
*1284 FILLER_36_27
*1285 FILLER_36_277
*1286 FILLER_36_289
*1287 FILLER_36_29
*1288 FILLER_36_297
*1289 FILLER_36_3
*1290 FILLER_36_41
*1291 FILLER_36_53
*1292 FILLER_36_65
*1293 FILLER_36_77
*1294 FILLER_36_83
*1295 FILLER_36_85
*1296 FILLER_36_93
*1297 FILLER_36_99
*1298 FILLER_37_101
*1299 FILLER_37_108
*1300 FILLER_37_129
*1301 FILLER_37_139
*1302 FILLER_37_15
*1303 FILLER_37_151
*1304 FILLER_37_163
*1305 FILLER_37_167
*1306 FILLER_37_169
*1307 FILLER_37_176
*1308 FILLER_37_188
*1309 FILLER_37_200
*1310 FILLER_37_206
*1311 FILLER_37_217
*1312 FILLER_37_223
*1313 FILLER_37_228
*1314 FILLER_37_235
*1315 FILLER_37_247
*1316 FILLER_37_259
*1317 FILLER_37_27
*1318 FILLER_37_271
*1319 FILLER_37_279
*1320 FILLER_37_281
*1321 FILLER_37_293
*1322 FILLER_37_3
*1323 FILLER_37_39
*1324 FILLER_37_51
*1325 FILLER_37_55
*1326 FILLER_37_57
*1327 FILLER_37_69
*1328 FILLER_37_81
*1329 FILLER_37_93
*1330 FILLER_38_105
*1331 FILLER_38_112
*1332 FILLER_38_118
*1333 FILLER_38_135
*1334 FILLER_38_139
*1335 FILLER_38_146
*1336 FILLER_38_15
*1337 FILLER_38_158
*1338 FILLER_38_166
*1339 FILLER_38_175
*1340 FILLER_38_184
*1341 FILLER_38_197
*1342 FILLER_38_213
*1343 FILLER_38_220
*1344 FILLER_38_232
*1345 FILLER_38_244
*1346 FILLER_38_253
*1347 FILLER_38_265
*1348 FILLER_38_27
*1349 FILLER_38_277
*1350 FILLER_38_289
*1351 FILLER_38_29
*1352 FILLER_38_297
*1353 FILLER_38_3
*1354 FILLER_38_41
*1355 FILLER_38_53
*1356 FILLER_38_65
*1357 FILLER_38_77
*1358 FILLER_38_83
*1359 FILLER_38_85
*1360 FILLER_38_90
*1361 FILLER_38_94
*1362 FILLER_38_98
*1363 FILLER_39_102
*1364 FILLER_39_110
*1365 FILLER_39_113
*1366 FILLER_39_117
*1367 FILLER_39_127
*1368 FILLER_39_141
*1369 FILLER_39_15
*1370 FILLER_39_155
*1371 FILLER_39_167
*1372 FILLER_39_169
*1373 FILLER_39_175
*1374 FILLER_39_183
*1375 FILLER_39_192
*1376 FILLER_39_204
*1377 FILLER_39_216
*1378 FILLER_39_225
*1379 FILLER_39_23
*1380 FILLER_39_237
*1381 FILLER_39_249
*1382 FILLER_39_261
*1383 FILLER_39_273
*1384 FILLER_39_279
*1385 FILLER_39_281
*1386 FILLER_39_293
*1387 FILLER_39_3
*1388 FILLER_39_34
*1389 FILLER_39_46
*1390 FILLER_39_54
*1391 FILLER_39_57
*1392 FILLER_39_69
*1393 FILLER_39_81
*1394 FILLER_39_85
*1395 FILLER_3_103
*1396 FILLER_3_111
*1397 FILLER_3_118
*1398 FILLER_3_125
*1399 FILLER_3_134
*1400 FILLER_3_146
*1401 FILLER_3_15
*1402 FILLER_3_158
*1403 FILLER_3_166
*1404 FILLER_3_169
*1405 FILLER_3_177
*1406 FILLER_3_189
*1407 FILLER_3_201
*1408 FILLER_3_213
*1409 FILLER_3_221
*1410 FILLER_3_225
*1411 FILLER_3_237
*1412 FILLER_3_249
*1413 FILLER_3_261
*1414 FILLER_3_273