*SPEF "ieee 1481-1999"
*DESIGN "tholin_avalonsemi_5401"
*DATE "11:11:11 Fri 11 11, 1111"
*VENDOR "OpenRCX"
*PROGRAM "Parallel Extraction"
*VERSION "1.0"
*DESIGN_FLOW "NAME_SCOPE LOCAL" "PIN_CAP NONE"
*DIVIDER /
*DELIMITER :
*BUS_DELIMITER []
*T_UNIT 1 NS
*C_UNIT 1 PF
*R_UNIT 1 OHM
*L_UNIT 1 HENRY

*NAME_MAP
*1 io_in[0]
*2 io_in[1]
*3 io_in[2]
*4 io_in[3]
*5 io_in[4]
*6 io_in[5]
*7 io_in[6]
*8 io_in[7]
*9 io_out[0]
*10 io_out[1]
*11 io_out[2]
*12 io_out[3]
*13 io_out[4]
*14 io_out[5]
*15 io_out[6]
*16 io_out[7]
*19 CIRCUIT_0\.GATES_10\.result
*20 CIRCUIT_0\.GATES_27\.result
*21 CIRCUIT_0\.GATES_28\.result
*22 CIRCUIT_0\.GATES_30\.result
*23 CIRCUIT_0\.GATES_33\.input2
*24 CIRCUIT_0\.GATES_35\.result
*25 CIRCUIT_0\.GATES_38\.result
*26 CIRCUIT_0\.GATES_39\.result
*27 CIRCUIT_0\.GATES_40\.result
*28 CIRCUIT_0\.GATES_41\.result
*29 CIRCUIT_0\.GATES_42\.result
*30 CIRCUIT_0\.GATES_53\.result
*31 CIRCUIT_0\.GATES_60\.result
*32 CIRCUIT_0\.GATES_9\.result
*33 CIRCUIT_0\.MEMORY_62\.d
*34 CIRCUIT_0\.MEMORY_62\.s_currentState
*35 CIRCUIT_0\.MEMORY_63\.d
*36 CIRCUIT_0\.MEMORY_63\.s_currentState
*37 CIRCUIT_0\.MEMORY_64\.d
*38 CIRCUIT_0\.MEMORY_64\.s_currentState
*39 CIRCUIT_0\.MEMORY_65\.d
*40 CIRCUIT_0\.MEMORY_65\.s_currentState
*41 CIRCUIT_0\.MEMORY_66\.d
*42 CIRCUIT_0\.MEMORY_66\.s_currentState
*43 CIRCUIT_0\.MEMORY_67\.d
*44 CIRCUIT_0\.MEMORY_67\.s_currentState
*45 CIRCUIT_0\.MEMORY_68\.s_currentState
*46 CIRCUIT_0\.MEMORY_69\.s_currentState
*47 CIRCUIT_0\.MEMORY_70\.s_currentState
*48 CIRCUIT_0\.MEMORY_71\.s_currentState
*49 CIRCUIT_0\.MEMORY_72\.s_currentState
*50 CIRCUIT_0\.MEMORY_73\.s_currentState
*51 CIRCUIT_0\.MEMORY_74\.s_currentState
*52 CIRCUIT_0\.MEMORY_75\.s_currentState
*53 CIRCUIT_0\.MEMORY_76\.s_currentState
*54 CIRCUIT_0\.MEMORY_77\.s_currentState
*55 CIRCUIT_0\.MEMORY_78\.s_currentState
*56 CIRCUIT_0\.MEMORY_79\.s_currentState
*57 CIRCUIT_0\.MEMORY_80\.s_currentState
*58 CIRCUIT_0\.MEMORY_81\.s_currentState
*59 CIRCUIT_0\.MEMORY_82\.s_currentState
*60 CIRCUIT_0\.MEMORY_83\.s_currentState
*61 CIRCUIT_0\.MEMORY_84\.s_currentState
*62 CIRCUIT_0\.MEMORY_85\.s_currentState
*63 CIRCUIT_0\.MEMORY_86\.s_currentState
*64 CIRCUIT_0\.MEMORY_87\.s_currentState
*65 CIRCUIT_0\.MEMORY_88\.s_currentState
*66 CIRCUIT_0\.O_4_MAR
*67 CIRCUIT_0\.O_5_WRITE
*68 CIRCUIT_0\.O_6_JMP
*69 CIRCUIT_0\.O_7_I
*70 CIRCUIT_0\.O_D0_RR0
*71 CIRCUIT_0\.O_D1_RR1
*72 CIRCUIT_0\.O_D2_RR2
*73 CIRCUIT_0\.O_D3_RR3
*74 CIRCUIT_0\.clock_gen_2_1\.CLK1
*75 CIRCUIT_0\.clock_gen_2_1\.GATES_1\.input2
*76 CIRCUIT_0\.clock_gen_2_1\.GATES_3\.result
*77 CIRCUIT_0\.clock_gen_2_1\.MEMORY_4\.d
*78 CIRCUIT_0\.clock_gen_2_1\.MEMORY_4\.s_currentState
*79 CIRCUIT_0\.clock_gen_2_1\.MEMORY_5\.d
*80 CIRCUIT_0\.clock_gen_2_1\.MEMORY_5\.s_currentState
*81 CIRCUIT_0\.clock_gen_2_1\.MEMORY_6\.s_currentState
*82 CIRCUIT_0\.dest_reg_sel_new_1\.GATES_14\.input1
*83 CIRCUIT_0\.dest_reg_sel_new_1\.GATES_14\.input2
*84 CIRCUIT_0\.dest_reg_sel_new_1\.GATES_26\.result
*85 CIRCUIT_0\.inst_dec_1\.MEMORY_21\.s_currentState
*86 CIRCUIT_0\.inst_dec_1\.MEMORY_22\.s_currentState
*87 CIRCUIT_0\.inst_dec_1\.MEMORY_23\.s_currentState
*88 CIRCUIT_0\.inst_dec_1\.MEMORY_24\.s_currentState
*89 CIRCUIT_0\.int_memory_1\.GATES_1\.input2\[0\]
*90 CIRCUIT_0\.int_memory_1\.GATES_1\.input2\[1\]
*91 CIRCUIT_0\.int_memory_1\.GATES_1\.input2\[2\]
*92 CIRCUIT_0\.int_memory_1\.GATES_1\.input2\[3\]
*93 CIRCUIT_0\.int_memory_1\.GATES_2\.input2\[0\]
*94 CIRCUIT_0\.int_memory_1\.GATES_2\.input2\[1\]
*95 CIRCUIT_0\.int_memory_1\.GATES_2\.input2\[2\]
*96 CIRCUIT_0\.int_memory_1\.GATES_2\.input2\[3\]
*97 CIRCUIT_0\.int_memory_1\.GATES_21\.result
*98 CIRCUIT_0\.int_memory_1\.GATES_22\.result
*99 CIRCUIT_0\.int_memory_1\.GATES_23\.result
*100 CIRCUIT_0\.int_memory_1\.GATES_24\.result
*101 CIRCUIT_0\.int_memory_1\.GATES_25\.result
*102 CIRCUIT_0\.int_memory_1\.GATES_26\.result
*103 CIRCUIT_0\.int_memory_1\.GATES_27\.result
*104 CIRCUIT_0\.int_memory_1\.GATES_28\.result
*105 CIRCUIT_0\.int_memory_1\.GATES_29\.result
*106 CIRCUIT_0\.int_memory_1\.GATES_3\.input2\[0\]
*107 CIRCUIT_0\.int_memory_1\.GATES_3\.input2\[1\]
*108 CIRCUIT_0\.int_memory_1\.GATES_3\.input2\[2\]
*109 CIRCUIT_0\.int_memory_1\.GATES_3\.input2\[3\]
*110 CIRCUIT_0\.int_memory_1\.GATES_30\.result
*111 CIRCUIT_0\.int_memory_1\.GATES_31\.result
*112 CIRCUIT_0\.int_memory_1\.GATES_32\.result
*113 CIRCUIT_0\.int_memory_1\.GATES_33\.result
*114 CIRCUIT_0\.int_memory_1\.GATES_4\.input2\[0\]
*115 CIRCUIT_0\.int_memory_1\.GATES_4\.input2\[1\]
*116 CIRCUIT_0\.int_memory_1\.GATES_4\.input2\[2\]
*117 CIRCUIT_0\.int_memory_1\.GATES_4\.input2\[3\]
*118 CIRCUIT_0\.int_memory_1\.GATES_49\.input2\[0\]
*119 CIRCUIT_0\.int_memory_1\.GATES_49\.input2\[1\]
*120 CIRCUIT_0\.int_memory_1\.GATES_49\.input2\[2\]
*121 CIRCUIT_0\.int_memory_1\.GATES_49\.input2\[3\]
*122 CIRCUIT_0\.int_memory_1\.GATES_5\.input2\[0\]
*123 CIRCUIT_0\.int_memory_1\.GATES_5\.input2\[1\]
*124 CIRCUIT_0\.int_memory_1\.GATES_5\.input2\[2\]
*125 CIRCUIT_0\.int_memory_1\.GATES_5\.input2\[3\]
*126 CIRCUIT_0\.int_memory_1\.GATES_50\.result
*127 CIRCUIT_0\.int_memory_1\.GATES_51\.input2\[0\]
*128 CIRCUIT_0\.int_memory_1\.GATES_51\.input2\[1\]
*129 CIRCUIT_0\.int_memory_1\.GATES_51\.input2\[2\]
*130 CIRCUIT_0\.int_memory_1\.GATES_51\.input2\[3\]
*131 CIRCUIT_0\.int_memory_1\.GATES_53\.result
*132 CIRCUIT_0\.int_memory_1\.GATES_6\.input2\[0\]
*133 CIRCUIT_0\.int_memory_1\.GATES_6\.input2\[1\]
*134 CIRCUIT_0\.int_memory_1\.GATES_6\.input2\[2\]
*135 CIRCUIT_0\.int_memory_1\.GATES_6\.input2\[3\]
*136 CIRCUIT_0\.int_memory_1\.GATES_7\.input2\[0\]
*137 CIRCUIT_0\.int_memory_1\.GATES_7\.input2\[1\]
*138 CIRCUIT_0\.int_memory_1\.GATES_7\.input2\[2\]
*139 CIRCUIT_0\.int_memory_1\.GATES_7\.input2\[3\]
*140 CIRCUIT_0\.int_memory_1\.GATES_8\.input2\[0\]
*141 CIRCUIT_0\.int_memory_1\.GATES_8\.input2\[1\]
*142 CIRCUIT_0\.int_memory_1\.GATES_8\.input2\[2\]
*143 CIRCUIT_0\.int_memory_1\.GATES_8\.input2\[3\]
*144 CIRCUIT_0\.int_memory_1\.div_1\.A0
*145 CIRCUIT_0\.int_memory_1\.div_1\.A1
*146 CIRCUIT_0\.int_memory_1\.div_1\.A2
*147 CIRCUIT_0\.int_memory_1\.div_1\.A3
*148 CIRCUIT_0\.int_memory_1\.div_1\.A4
*149 CIRCUIT_0\.int_memory_1\.div_1\.A5
*150 CIRCUIT_0\.int_memory_1\.div_1\.A6
*151 CIRCUIT_0\.int_memory_1\.div_1\.A7
*152 CIRCUIT_0\.int_memory_1\.div_1\.B0
*153 CIRCUIT_0\.int_memory_1\.div_1\.B1
*154 CIRCUIT_0\.int_memory_1\.div_1\.B2
*155 CIRCUIT_0\.int_memory_1\.div_1\.B3
*156 CIRCUIT_0\.int_memory_1\.mul2_1\.A0
*157 CIRCUIT_0\.int_memory_1\.mul2_1\.A1
*158 CIRCUIT_0\.int_memory_1\.mul2_1\.A2
*159 CIRCUIT_0\.int_memory_1\.mul2_1\.A3
*160 CIRCUIT_0\.int_memory_1\.mul2_1\.B0
*161 CIRCUIT_0\.int_memory_1\.mul2_1\.B1
*162 CIRCUIT_0\.int_memory_1\.mul2_1\.B2
*163 CIRCUIT_0\.int_memory_1\.mul2_1\.B3
*164 _0000_
*165 _0001_
*166 _0002_
*167 _0003_
*168 _0004_
*169 _0005_
*170 _0006_
*171 _0007_
*172 _0008_
*173 _0009_
*174 _0010_
*175 _0011_
*176 _0012_
*177 _0013_
*178 _0014_
*179 _0015_
*180 _0016_
*181 _0017_
*182 _0018_
*183 _0019_
*184 _0020_
*185 _0021_
*186 _0022_
*187 _0023_
*188 _0024_
*189 _0025_
*190 _0026_
*191 _0027_
*192 _0028_
*193 _0029_
*194 _0030_
*195 _0031_
*196 _0032_
*197 _0033_
*198 _0034_
*199 _0035_
*200 _0036_
*201 _0037_
*202 _0038_
*203 _0039_
*204 _0040_
*205 _0041_
*206 _0042_
*207 _0043_
*208 _0044_
*209 _0045_
*210 _0046_
*211 _0047_
*212 _0048_
*213 _0049_
*214 _0050_
*215 _0051_
*216 _0052_
*217 _0053_
*218 _0054_
*219 _0055_
*220 _0056_
*221 _0057_
*222 _0058_
*223 _0059_
*224 _0060_
*225 _0061_
*226 _0062_
*227 _0063_
*228 _0064_
*229 _0065_
*230 _0066_
*231 _0067_
*232 _0068_
*233 _0069_
*234 _0070_
*235 _0071_
*236 _0072_
*237 _0073_
*238 _0074_
*239 _0075_
*240 _0076_
*241 _0077_
*242 _0078_
*243 _0079_
*244 _0080_
*245 _0081_
*246 _0082_
*247 _0083_
*248 _0084_
*249 _0085_
*250 _0086_
*251 _0087_
*252 _0088_
*253 _0089_
*254 _0090_
*255 _0091_
*256 _0092_
*257 _0093_
*258 _0094_
*259 _0095_
*260 _0096_
*261 _0097_
*262 _0098_
*263 _0099_
*264 _0100_
*265 _0101_
*266 _0102_
*267 _0103_
*268 _0104_
*269 _0105_
*270 _0106_
*271 _0107_
*272 _0108_
*273 _0109_
*274 _0110_
*275 _0111_
*276 _0112_
*277 _0113_
*278 _0114_
*279 _0115_
*280 _0116_
*281 _0117_
*282 _0118_
*283 _0119_
*284 _0120_
*285 _0121_
*286 _0122_
*287 _0123_
*288 _0124_
*289 _0125_
*290 _0126_
*291 _0127_
*292 _0128_
*293 _0129_
*294 _0130_
*295 _0131_
*296 _0132_
*297 _0133_
*298 _0134_
*299 _0135_
*300 _0136_
*301 _0137_
*302 _0138_
*303 _0139_
*304 _0140_
*305 _0141_
*306 _0142_
*307 _0143_
*308 _0144_
*309 _0145_
*310 _0146_
*311 _0147_
*312 _0148_
*313 _0149_
*314 _0150_
*315 _0151_
*316 _0152_
*317 _0153_
*318 _0154_
*319 _0155_
*320 _0156_
*321 _0157_
*322 _0158_
*323 _0159_
*324 _0160_
*325 _0161_
*326 _0162_
*327 _0163_
*328 _0164_
*329 _0165_
*330 _0166_
*331 _0167_
*332 _0168_
*333 _0169_
*334 _0170_
*335 _0171_
*336 _0172_
*337 _0173_
*338 _0174_
*339 _0175_
*340 _0176_
*341 _0177_
*342 _0178_
*343 _0179_
*344 _0180_
*345 _0181_
*346 _0182_
*347 _0183_
*348 _0184_
*349 _0185_
*350 _0186_
*351 _0187_
*352 _0188_
*353 _0189_
*354 _0190_
*355 _0191_
*356 _0192_
*357 _0193_
*358 _0194_
*359 _0195_
*360 _0196_
*361 _0197_
*362 _0198_
*363 _0199_
*364 _0200_
*365 _0201_
*366 _0202_
*367 _0203_
*368 _0204_
*369 _0205_
*370 _0206_
*371 _0207_
*372 _0208_
*373 _0209_
*374 _0210_
*375 _0211_
*376 _0212_
*377 _0213_
*378 _0214_
*379 _0215_
*380 _0216_
*381 _0217_
*382 _0218_
*383 _0219_
*384 _0220_
*385 _0221_
*386 _0222_
*387 _0223_
*388 _0224_
*389 _0225_
*390 _0226_
*391 _0227_
*392 _0228_
*393 _0229_
*394 _0230_
*395 _0231_
*396 _0232_
*397 _0233_
*398 _0234_
*399 _0235_
*400 _0236_
*401 _0237_
*402 _0238_
*403 _0239_
*404 _0240_
*405 _0241_
*406 _0242_
*407 _0243_
*408 _0244_
*409 _0245_
*410 _0246_
*411 _0247_
*412 _0248_
*413 _0249_
*414 _0250_
*415 _0251_
*416 _0252_
*417 _0253_
*418 _0254_
*419 _0255_
*420 _0256_
*421 _0257_
*422 _0258_
*423 _0259_
*424 _0260_
*425 _0261_
*426 _0262_
*427 _0263_
*428 _0264_
*429 _0265_
*430 _0266_
*431 _0267_
*432 _0268_
*433 _0269_
*434 _0270_
*435 _0271_
*436 _0272_
*437 _0273_
*438 _0274_
*439 _0275_
*440 _0276_
*441 _0277_
*442 _0278_
*443 _0279_
*444 _0280_
*445 _0281_
*446 _0282_
*447 _0283_
*448 _0284_
*449 _0285_
*450 _0286_
*451 _0287_
*452 _0288_
*453 _0289_
*454 _0290_
*455 _0291_
*456 _0292_
*457 _0293_
*458 _0294_
*459 _0295_
*460 _0296_
*461 _0297_
*462 _0298_
*463 _0299_
*464 _0300_
*465 _0301_
*466 _0302_
*467 _0303_
*468 _0304_
*469 _0305_
*470 _0306_
*471 _0307_
*472 _0308_
*473 _0309_
*474 _0310_
*475 _0311_
*476 _0312_
*477 _0313_
*478 _0314_
*479 _0315_
*480 _0316_
*481 _0317_
*482 _0318_
*483 _0319_
*484 _0320_
*485 _0321_
*486 _0322_
*487 _0323_
*488 _0324_
*489 _0325_
*490 _0326_
*491 _0327_
*492 _0328_
*493 _0329_
*494 _0330_
*495 _0331_
*496 _0332_
*497 _0333_
*498 _0334_
*499 _0335_
*500 _0336_
*501 _0337_
*502 _0338_
*503 _0339_
*504 _0340_
*505 _0341_
*506 _0342_
*507 _0343_
*508 _0344_
*509 _0345_
*510 _0346_
*511 _0347_
*512 _0348_
*513 _0349_
*514 _0350_
*515 _0351_
*516 _0352_
*517 _0353_
*518 _0354_
*519 _0355_
*520 _0356_
*521 _0357_
*522 _0358_
*523 _0359_
*524 _0360_
*525 _0361_
*526 _0362_
*527 _0363_
*528 _0364_
*529 _0365_
*530 _0366_
*531 _0367_
*532 _0368_
*533 _0369_
*534 _0370_
*535 _0371_
*536 _0372_
*537 _0373_
*538 _0374_
*539 _0375_
*540 _0376_
*541 _0377_
*542 _0378_
*543 _0379_
*544 _0380_
*545 _0381_
*546 _0382_
*547 _0383_
*548 _0384_
*549 _0385_
*550 _0386_
*551 _0387_
*552 _0388_
*553 _0389_
*554 _0390_
*555 _0391_
*556 _0392_
*557 _0393_
*558 _0394_
*559 _0395_
*560 _0396_
*561 _0397_
*562 _0398_
*563 _0399_
*564 _0400_
*565 _0401_
*566 _0402_
*567 _0403_
*568 _0404_
*569 _0405_
*570 _0406_
*571 _0407_
*572 _0408_
*573 _0409_
*574 _0410_
*575 _0411_
*576 _0412_
*577 _0413_
*578 _0414_
*579 _0415_
*580 _0416_
*581 _0417_
*582 _0418_
*583 _0419_
*584 _0420_
*585 _0421_
*586 _0422_
*587 _0423_
*588 _0424_
*589 _0425_
*590 _0426_
*591 _0427_
*592 _0428_
*593 _0429_
*594 _0430_
*595 _0431_
*596 _0432_
*597 _0433_
*598 _0434_
*599 _0435_
*600 _0436_
*601 _0437_
*602 _0438_
*603 _0439_
*604 _0440_
*605 _0441_
*606 _0442_
*607 _0443_
*608 _0444_
*609 _0445_
*610 _0446_
*611 _0447_
*612 _0448_
*613 _0449_
*614 _0450_
*615 _0451_
*616 _0452_
*617 _0453_
*618 _0454_
*619 _0455_
*620 _0456_
*621 _0457_
*622 _0458_
*623 _0459_
*624 _0460_
*625 _0461_
*626 _0462_
*627 _0463_
*628 _0464_
*629 _0465_
*630 _0466_
*631 _0467_
*632 _0468_
*633 _0469_
*634 _0470_
*635 _0471_
*636 _0472_
*637 _0473_
*638 _0474_
*639 _0475_
*640 _0476_
*641 _0477_
*642 _0478_
*643 _0479_
*644 _0480_
*645 _0481_
*646 _0482_
*647 _0483_
*648 _0484_
*649 _0485_
*650 _0486_
*651 _0487_
*652 _0488_
*653 _0489_
*654 _0490_
*655 _0491_
*656 _0492_
*657 _0493_
*658 _0494_
*659 _0495_
*660 _0496_
*661 _0497_
*662 _0498_
*663 _0499_
*664 _0500_
*665 _0501_
*666 _0502_
*667 _0503_
*668 _0504_
*669 _0505_
*670 _0506_
*671 _0507_
*672 _0508_
*673 _0509_
*674 _0510_
*675 _0511_
*676 _0512_
*677 _0513_
*678 _0514_
*679 _0515_
*680 _0516_
*681 _0517_
*682 _0518_
*683 _0519_
*684 _0520_
*685 _0521_
*686 _0522_
*687 _0523_
*688 _0524_
*689 _0525_
*690 _0526_
*691 _0527_
*692 _0528_
*693 _0529_
*694 _0530_
*695 _0531_
*696 _0532_
*697 _0533_
*698 _0534_
*699 _0535_
*700 _0536_
*701 _0537_
*702 _0538_
*703 _0539_
*704 _0540_
*705 _0541_
*706 _0542_
*707 _0543_
*708 _0544_
*709 _0545_
*710 _0546_
*711 _0547_
*712 _0548_
*713 _0549_
*714 _0550_
*715 _0551_
*716 _0552_
*717 _0553_
*718 _0554_
*719 _0555_
*720 _0556_
*721 _0557_
*722 _0558_
*723 _0559_
*724 _0560_
*725 _0561_
*726 _0562_
*727 _0563_
*728 _0564_
*729 _0565_
*730 _0566_
*731 _0567_
*732 _0568_
*733 clknet_0_CIRCUIT_0\.int_memory_1\.GATES_21\.result
*734 clknet_0_CIRCUIT_0\.int_memory_1\.GATES_22\.result
*735 clknet_0_CIRCUIT_0\.int_memory_1\.GATES_23\.result
*736 clknet_0_CIRCUIT_0\.int_memory_1\.GATES_24\.result
*737 clknet_0_CIRCUIT_0\.int_memory_1\.GATES_25\.result
*738 clknet_0_CIRCUIT_0\.int_memory_1\.GATES_26\.result
*739 clknet_0_CIRCUIT_0\.int_memory_1\.GATES_27\.result
*740 clknet_0_CIRCUIT_0\.int_memory_1\.GATES_28\.result
*741 clknet_0_CIRCUIT_0\.int_memory_1\.GATES_29\.result
*742 clknet_0_CIRCUIT_0\.int_memory_1\.GATES_30\.result
*743 clknet_0_CIRCUIT_0\.int_memory_1\.GATES_31\.result
*744 clknet_0_CIRCUIT_0\.int_memory_1\.GATES_32\.result
*745 clknet_0_CIRCUIT_0\.int_memory_1\.GATES_33\.result
*746 clknet_0_CIRCUIT_0\.int_memory_1\.GATES_50\.result
*747 clknet_0_CIRCUIT_0\.int_memory_1\.GATES_53\.result
*748 clknet_0__0081_
*749 clknet_0__0082_
*750 clknet_0__0513_
*751 clknet_0__0518_
*752 clknet_0__0520_
*753 clknet_0__0526_
*754 clknet_0__0533_
*755 clknet_0__0535_
*756 clknet_0_io_in[0]
*757 clknet_1_0__leaf_CIRCUIT_0\.int_memory_1\.GATES_21\.result
*758 clknet_1_0__leaf_CIRCUIT_0\.int_memory_1\.GATES_22\.result
*759 clknet_1_0__leaf_CIRCUIT_0\.int_memory_1\.GATES_23\.result
*760 clknet_1_0__leaf_CIRCUIT_0\.int_memory_1\.GATES_24\.result
*761 clknet_1_0__leaf_CIRCUIT_0\.int_memory_1\.GATES_25\.result
*762 clknet_1_0__leaf_CIRCUIT_0\.int_memory_1\.GATES_26\.result
*763 clknet_1_0__leaf_CIRCUIT_0\.int_memory_1\.GATES_27\.result
*764 clknet_1_0__leaf_CIRCUIT_0\.int_memory_1\.GATES_28\.result
*765 clknet_1_0__leaf_CIRCUIT_0\.int_memory_1\.GATES_29\.result
*766 clknet_1_0__leaf_CIRCUIT_0\.int_memory_1\.GATES_30\.result
*767 clknet_1_0__leaf_CIRCUIT_0\.int_memory_1\.GATES_31\.result
*768 clknet_1_0__leaf_CIRCUIT_0\.int_memory_1\.GATES_32\.result
*769 clknet_1_0__leaf_CIRCUIT_0\.int_memory_1\.GATES_33\.result
*770 clknet_1_0__leaf_CIRCUIT_0\.int_memory_1\.GATES_50\.result
*771 clknet_1_0__leaf_CIRCUIT_0\.int_memory_1\.GATES_53\.result
*772 clknet_1_0__leaf__0081_
*773 clknet_1_0__leaf__0082_
*774 clknet_1_0__leaf__0513_
*775 clknet_1_0__leaf__0518_
*776 clknet_1_0__leaf__0520_
*777 clknet_1_0__leaf__0526_
*778 clknet_1_0__leaf__0533_
*779 clknet_1_0__leaf__0535_
*780 clknet_1_0__leaf_io_in[0]
*781 clknet_1_1__leaf_CIRCUIT_0\.int_memory_1\.GATES_21\.result
*782 clknet_1_1__leaf_CIRCUIT_0\.int_memory_1\.GATES_22\.result
*783 clknet_1_1__leaf_CIRCUIT_0\.int_memory_1\.GATES_23\.result
*784 clknet_1_1__leaf_CIRCUIT_0\.int_memory_1\.GATES_24\.result
*785 clknet_1_1__leaf_CIRCUIT_0\.int_memory_1\.GATES_25\.result
*786 clknet_1_1__leaf_CIRCUIT_0\.int_memory_1\.GATES_26\.result
*787 clknet_1_1__leaf_CIRCUIT_0\.int_memory_1\.GATES_27\.result
*788 clknet_1_1__leaf_CIRCUIT_0\.int_memory_1\.GATES_28\.result
*789 clknet_1_1__leaf_CIRCUIT_0\.int_memory_1\.GATES_29\.result
*790 clknet_1_1__leaf_CIRCUIT_0\.int_memory_1\.GATES_30\.result
*791 clknet_1_1__leaf_CIRCUIT_0\.int_memory_1\.GATES_31\.result
*792 clknet_1_1__leaf_CIRCUIT_0\.int_memory_1\.GATES_32\.result
*793 clknet_1_1__leaf_CIRCUIT_0\.int_memory_1\.GATES_33\.result
*794 clknet_1_1__leaf_CIRCUIT_0\.int_memory_1\.GATES_50\.result
*795 clknet_1_1__leaf_CIRCUIT_0\.int_memory_1\.GATES_53\.result
*796 clknet_1_1__leaf__0081_
*797 clknet_1_1__leaf__0082_
*798 clknet_1_1__leaf__0513_
*799 clknet_1_1__leaf__0518_
*800 clknet_1_1__leaf__0520_
*801 clknet_1_1__leaf__0526_
*802 clknet_1_1__leaf__0533_
*803 clknet_1_1__leaf__0535_
*804 clknet_1_1__leaf_io_in[0]
*805 net1
*806 net2
*807 net3
*808 net4
*809 net5
*810 net6
*811 net7
*812 net8
*813 ANTENNA_0
*814 ANTENNA_1
*815 ANTENNA_10
*816 ANTENNA_11
*817 ANTENNA_12
*818 ANTENNA_13
*819 ANTENNA_14
*820 ANTENNA_15
*821 ANTENNA_16
*822 ANTENNA_17
*823 ANTENNA_2
*824 ANTENNA_3
*825 ANTENNA_4
*826 ANTENNA_5
*827 ANTENNA_6
*828 ANTENNA_7
*829 ANTENNA_8
*830 ANTENNA_9
*831 FILLER_0_108
*832 FILLER_0_113
*833 FILLER_0_136
*834 FILLER_0_141
*835 FILLER_0_164
*836 FILLER_0_185
*837 FILLER_0_192
*838 FILLER_0_202
*839 FILLER_0_209
*840 FILLER_0_216
*841 FILLER_0_225
*842 FILLER_0_237
*843 FILLER_0_24
*844 FILLER_0_249
*845 FILLER_0_253
*846 FILLER_0_265
*847 FILLER_0_277
*848 FILLER_0_281
*849 FILLER_0_29
*850 FILLER_0_293
*851 FILLER_0_3
*852 FILLER_0_52
*853 FILLER_0_57
*854 FILLER_0_80
*855 FILLER_0_85
*856 FILLER_10_102
*857 FILLER_10_121
*858 FILLER_10_125
*859 FILLER_10_136
*860 FILLER_10_157
*861 FILLER_10_177
*862 FILLER_10_183
*863 FILLER_10_190
*864 FILLER_10_202
*865 FILLER_10_211
*866 FILLER_10_219
*867 FILLER_10_227
*868 FILLER_10_234
*869 FILLER_10_24
*870 FILLER_10_241
*871 FILLER_10_249
*872 FILLER_10_253
*873 FILLER_10_265
*874 FILLER_10_277
*875 FILLER_10_289
*876 FILLER_10_297
*877 FILLER_10_3
*878 FILLER_10_32
*879 FILLER_10_56
*880 FILLER_10_80
*881 FILLER_11_101
*882 FILLER_11_108
*883 FILLER_11_113
*884 FILLER_11_135
*885 FILLER_11_155
*886 FILLER_11_164
*887 FILLER_11_175
*888 FILLER_11_184
*889 FILLER_11_192
*890 FILLER_11_202
*891 FILLER_11_210
*892 FILLER_11_217
*893 FILLER_11_223
*894 FILLER_11_228
*895 FILLER_11_240
*896 FILLER_11_252
*897 FILLER_11_264
*898 FILLER_11_276
*899 FILLER_11_28
*900 FILLER_11_281
*901 FILLER_11_293
*902 FILLER_11_3
*903 FILLER_11_52
*904 FILLER_11_57
*905 FILLER_11_69
*906 FILLER_11_93
*907 FILLER_12_109
*908 FILLER_12_129
*909 FILLER_12_136
*910 FILLER_12_157
*911 FILLER_12_169
*912 FILLER_12_173
*913 FILLER_12_180
*914 FILLER_12_190
*915 FILLER_12_201
*916 FILLER_12_210
*917 FILLER_12_217
*918 FILLER_12_229
*919 FILLER_12_24
*920 FILLER_12_241
*921 FILLER_12_249
*922 FILLER_12_253
*923 FILLER_12_265
*924 FILLER_12_277
*925 FILLER_12_289
*926 FILLER_12_297
*927 FILLER_12_3
*928 FILLER_12_32
*929 FILLER_12_56
*930 FILLER_12_80
*931 FILLER_12_85
*932 FILLER_13_102
*933 FILLER_13_110
*934 FILLER_13_129
*935 FILLER_13_149
*936 FILLER_13_160
*937 FILLER_13_176
*938 FILLER_13_185
*939 FILLER_13_193
*940 FILLER_13_201
*941 FILLER_13_207
*942 FILLER_13_214
*943 FILLER_13_222
*944 FILLER_13_225
*945 FILLER_13_233
*946 FILLER_13_243
*947 FILLER_13_25
*948 FILLER_13_255
*949 FILLER_13_267
*950 FILLER_13_279
*951 FILLER_13_281
*952 FILLER_13_293
*953 FILLER_13_3
*954 FILLER_13_49
*955 FILLER_13_55
*956 FILLER_13_77
*957 FILLER_13_81
*958 FILLER_14_102
*959 FILLER_14_122
*960 FILLER_14_136
*961 FILLER_14_146
*962 FILLER_14_160
*963 FILLER_14_170
*964 FILLER_14_179
*965 FILLER_14_187
*966 FILLER_14_195
*967 FILLER_14_200
*968 FILLER_14_204
*969 FILLER_14_210
*970 FILLER_14_219
*971 FILLER_14_231
*972 FILLER_14_24
*973 FILLER_14_243
*974 FILLER_14_251
*975 FILLER_14_253
*976 FILLER_14_265
*977 FILLER_14_277
*978 FILLER_14_289
*979 FILLER_14_297
*980 FILLER_14_3
*981 FILLER_14_39
*982 FILLER_14_65
*983 FILLER_14_73
*984 FILLER_14_80
*985 FILLER_15_101
*986 FILLER_15_108
*987 FILLER_15_129
*988 FILLER_15_139
*989 FILLER_15_143
*990 FILLER_15_150
*991 FILLER_15_154
*992 FILLER_15_161
*993 FILLER_15_167
*994 FILLER_15_176
*995 FILLER_15_184
*996 FILLER_15_191
*997 FILLER_15_201
*998 FILLER_15_220
*999 FILLER_15_225
*1000 FILLER_15_237
*1001 FILLER_15_249
*1002 FILLER_15_261
*1003 FILLER_15_265
*1004 FILLER_15_269
*1005 FILLER_15_27
*1006 FILLER_15_277
*1007 FILLER_15_281
*1008 FILLER_15_293
*1009 FILLER_15_3
*1010 FILLER_15_31
*1011 FILLER_15_52
*1012 FILLER_15_77
*1013 FILLER_16_109
*1014 FILLER_16_129
*1015 FILLER_16_136
*1016 FILLER_16_147
*1017 FILLER_16_156
*1018 FILLER_16_163
*1019 FILLER_16_167
*1020 FILLER_16_173
*1021 FILLER_16_181
*1022 FILLER_16_193
*1023 FILLER_16_197
*1024 FILLER_16_209
*1025 FILLER_16_215
*1026 FILLER_16_219
*1027 FILLER_16_225
*1028 FILLER_16_229
*1029 FILLER_16_24
*1030 FILLER_16_242
*1031 FILLER_16_250
*1032 FILLER_16_253
*1033 FILLER_16_258
*1034 FILLER_16_266
*1035 FILLER_16_281
*1036 FILLER_16_29
*1037 FILLER_16_293
*1038 FILLER_16_3
*1039 FILLER_16_48
*1040 FILLER_16_72
*1041 FILLER_16_80
*1042 FILLER_16_85
*1043 FILLER_17_108
*1044 FILLER_17_129
*1045 FILLER_17_139
*1046 FILLER_17_147
*1047 FILLER_17_154
*1048 FILLER_17_162
*1049 FILLER_17_176
*1050 FILLER_17_180
*1051 FILLER_17_185
*1052 FILLER_17_197
*1053 FILLER_17_208
*1054 FILLER_17_215
*1055 FILLER_17_223
*1056 FILLER_17_225
*1057 FILLER_17_237
*1058 FILLER_17_249
*1059 FILLER_17_259
*1060 FILLER_17_263
*1061 FILLER_17_269
*1062 FILLER_17_277
*1063 FILLER_17_28
*1064 FILLER_17_281
*1065 FILLER_17_293
*1066 FILLER_17_3
*1067 FILLER_17_52
*1068 FILLER_17_57
*1069 FILLER_17_61
*1070 FILLER_17_68
*1071 FILLER_17_7
*1072 FILLER_17_72
*1073 FILLER_17_93
*1074 FILLER_18_100
*1075 FILLER_18_120
*1076 FILLER_18_128
*1077 FILLER_18_135
*1078 FILLER_18_139
*1079 FILLER_18_146
*1080 FILLER_18_154
*1081 FILLER_18_161
*1082 FILLER_18_168
*1083 FILLER_18_175
*1084 FILLER_18_187
*1085 FILLER_18_195
*1086 FILLER_18_204
*1087 FILLER_18_21
*1088 FILLER_18_212
*1089 FILLER_18_219
*1090 FILLER_18_231
*1091 FILLER_18_243
*1092 FILLER_18_251
*1093 FILLER_18_253
*1094 FILLER_18_265
*1095 FILLER_18_27
*1096 FILLER_18_277
*1097 FILLER_18_289
*1098 FILLER_18_297
*1099 FILLER_18_36
*1100 FILLER_18_44
*1101 FILLER_18_65
*1102 FILLER_18_73
*1103 FILLER_18_8
*1104 FILLER_18_80
*1105 FILLER_18_90
*1106 FILLER_19_104
*1107 FILLER_19_129
*1108 FILLER_19_138
*1109 FILLER_19_146
*1110 FILLER_19_154
*1111 FILLER_19_163
*1112 FILLER_19_167
*1113 FILLER_19_185
*1114 FILLER_19_191
*1115 FILLER_19_199
*1116 FILLER_19_211
*1117 FILLER_19_223
*1118 FILLER_19_231
*1119 FILLER_19_243
*1120 FILLER_19_25
*1121 FILLER_19_252
*1122 FILLER_19_268
*1123 FILLER_19_288
*1124 FILLER_19_296
*1125 FILLER_19_3
*1126 FILLER_19_52
*1127 FILLER_19_63
*1128 FILLER_19_67
*1129 FILLER_19_7
*1130 FILLER_19_84
*1131 FILLER_1_101
*1132 FILLER_1_108
*1133 FILLER_1_113
*1134 FILLER_1_137
*1135 FILLER_1_161
*1136 FILLER_1_167
*1137 FILLER_1_185
*1138 FILLER_1_194
*1139 FILLER_1_203
*1140 FILLER_1_211
*1141 FILLER_1_218
*1142 FILLER_1_225
*1143 FILLER_1_237
*1144 FILLER_1_249
*1145 FILLER_1_261
*1146 FILLER_1_273
*1147 FILLER_1_279
*1148 FILLER_1_281
*1149 FILLER_1_293
*1150 FILLER_1_3
*1151 FILLER_1_32
*1152 FILLER_1_42
*1153 FILLER_1_46
*1154 FILLER_1_52
*1155 FILLER_1_67
*1156 FILLER_1_93
*1157 FILLER_20_109
*1158 FILLER_20_118
*1159 FILLER_20_12
*1160 FILLER_20_126
*1161 FILLER_20_133
*1162 FILLER_20_139
*1163 FILLER_20_141
*1164 FILLER_20_145
*1165 FILLER_20_152
*1166 FILLER_20_159
*1167 FILLER_20_166
*1168 FILLER_20_178
*1169 FILLER_20_190
*1170 FILLER_20_197
*1171 FILLER_20_209
*1172 FILLER_20_221
*1173 FILLER_20_23
*1174 FILLER_20_231
*1175 FILLER_20_243
*1176 FILLER_20_251
*1177 FILLER_20_253
*1178 FILLER_20_261
*1179 FILLER_20_27
*1180 FILLER_20_272
*1181 FILLER_20_284
*1182 FILLER_20_296
*1183 FILLER_20_32
*1184 FILLER_20_56
*1185 FILLER_20_80
*1186 FILLER_20_85
*1187 FILLER_21_107
*1188 FILLER_21_11
*1189 FILLER_21_111
*1190 FILLER_21_129
*1191 FILLER_21_139
*1192 FILLER_21_147
*1193 FILLER_21_154
*1194 FILLER_21_161
*1195 FILLER_21_167
*1196 FILLER_21_169
*1197 FILLER_21_185
*1198 FILLER_21_195
*1199 FILLER_21_207
*1200 FILLER_21_217
*1201 FILLER_21_22
*1202 FILLER_21_223
*1203 FILLER_21_225
*1204 FILLER_21_229
*1205 FILLER_21_233
*1206 FILLER_21_243
*1207 FILLER_21_251
*1208 FILLER_21_257
*1209 FILLER_21_263
*1210 FILLER_21_268
*1211 FILLER_21_284
*1212 FILLER_21_296
*1213 FILLER_21_3
*1214 FILLER_21_49
*1215 FILLER_21_55
*1216 FILLER_21_63
*1217 FILLER_21_67
*1218 FILLER_21_93
*1219 FILLER_22_105
*1220 FILLER_22_125
*1221 FILLER_22_133
*1222 FILLER_22_139
*1223 FILLER_22_141
*1224 FILLER_22_145
*1225 FILLER_22_153
*1226 FILLER_22_167
*1227 FILLER_22_179
*1228 FILLER_22_191
*1229 FILLER_22_195
*1230 FILLER_22_197
*1231 FILLER_22_209
*1232 FILLER_22_222
*1233 FILLER_22_230
*1234 FILLER_22_235
*1235 FILLER_22_24
*1236 FILLER_22_247
*1237 FILLER_22_251
*1238 FILLER_22_259
*1239 FILLER_22_271
*1240 FILLER_22_279
*1241 FILLER_22_290
*1242 FILLER_22_298
*1243 FILLER_22_3
*1244 FILLER_22_32
*1245 FILLER_22_58
*1246 FILLER_22_62
*1247 FILLER_22_80
*1248 FILLER_23_101
*1249 FILLER_23_108
*1250 FILLER_23_11
*1251 FILLER_23_113
*1252 FILLER_23_121
*1253 FILLER_23_125
*1254 FILLER_23_136
*1255 FILLER_23_144
*1256 FILLER_23_149
*1257 FILLER_23_161
*1258 FILLER_23_167
*1259 FILLER_23_169
*1260 FILLER_23_181
*1261 FILLER_23_193
*1262 FILLER_23_205
*1263 FILLER_23_217
*1264 FILLER_23_223
*1265 FILLER_23_225
*1266 FILLER_23_23
*1267 FILLER_23_233
*1268 FILLER_23_241
*1269 FILLER_23_248
*1270 FILLER_23_258
*1271 FILLER_23_269
*1272 FILLER_23_277
*1273 FILLER_23_288
*1274 FILLER_23_296
*1275 FILLER_23_31
*1276 FILLER_23_52
*1277 FILLER_23_57
*1278 FILLER_23_81
*1279 FILLER_24_101
*1280 FILLER_24_112
*1281 FILLER_24_116
*1282 FILLER_24_129
*1283 FILLER_24_136
*1284 FILLER_24_145
*1285 FILLER_24_149
*1286 FILLER_24_152
*1287 FILLER_24_158
*1288 FILLER_24_167
*1289 FILLER_24_175
*1290 FILLER_24_183
*1291 FILLER_24_192
*1292 FILLER_24_204
*1293 FILLER_24_216
*1294 FILLER_24_224
*1295 FILLER_24_230
*1296 FILLER_24_236
*1297 FILLER_24_24
*1298 FILLER_24_243
*1299 FILLER_24_251
*1300 FILLER_24_253
*1301 FILLER_24_261
*1302 FILLER_24_269
*1303 FILLER_24_278
*1304 FILLER_24_290
*1305 FILLER_24_298
*1306 FILLER_24_3
*1307 FILLER_24_36
*1308 FILLER_24_64
*1309 FILLER_24_7
*1310 FILLER_24_73
*1311 FILLER_24_80
*1312 FILLER_25_107
*1313 FILLER_25_111
*1314 FILLER_25_113
*1315 FILLER_25_120
*1316 FILLER_25_127
*1317 FILLER_25_135
*1318 FILLER_25_140
*1319 FILLER_25_148
*1320 FILLER_25_155
*1321 FILLER_25_167
*1322 FILLER_25_169
*1323 FILLER_25_181
*1324 FILLER_25_193
*1325 FILLER_25_209
*1326 FILLER_25_218
*1327 FILLER_25_232
*1328 FILLER_25_250
*1329 FILLER_25_263
*1330 FILLER_25_274
*1331 FILLER_25_28
*1332 FILLER_25_281
*1333 FILLER_25_287
*1334 FILLER_25_294
*1335 FILLER_25_298
*1336 FILLER_25_52
*1337 FILLER_25_61
*1338 FILLER_25_8
*1339 FILLER_25_85
*1340 FILLER_25_93
*1341 FILLER_26_101
*1342 FILLER_26_108
*1343 FILLER_26_112
*1344 FILLER_26_117
*1345 FILLER_26_124
*1346 FILLER_26_136
*1347 FILLER_26_141
*1348 FILLER_26_147
*1349 FILLER_26_154
*1350 FILLER_26_162
*1351 FILLER_26_170
*1352 FILLER_26_192
*1353 FILLER_26_197
*1354 FILLER_26_216
*1355 FILLER_26_228
*1356 FILLER_26_234
*1357 FILLER_26_238
*1358 FILLER_26_24
*1359 FILLER_26_248
*1360 FILLER_26_253
*1361 FILLER_26_257
*1362 FILLER_26_261
*1363 FILLER_26_269
*1364 FILLER_26_275
*1365 FILLER_26_283
*1366 FILLER_26_294
*1367 FILLER_26_298
*1368 FILLER_26_3
*1369 FILLER_26_35
*1370 FILLER_26_43
*1371 FILLER_26_65
*1372 FILLER_26_74
*1373 FILLER_26_82
*1374 FILLER_27_100
*1375 FILLER_27_104
*1376 FILLER_27_118
*1377 FILLER_27_12
*1378 FILLER_27_129
*1379 FILLER_27_146
*1380 FILLER_27_150
*1381 FILLER_27_159
*1382 FILLER_27_167
*1383 FILLER_27_169
*1384 FILLER_27_176
*1385 FILLER_27_187
*1386 FILLER_27_199
*1387 FILLER_27_207
*1388 FILLER_27_219
*1389 FILLER_27_223
*1390 FILLER_27_232
*1391 FILLER_27_241
*1392 FILLER_27_250
*1393 FILLER_27_254
*1394 FILLER_27_265
*1395 FILLER_27_274
*1396 FILLER_27_287
*1397 FILLER_27_3
*1398 FILLER_27_36
*1399 FILLER_27_46
*1400 FILLER_27_54
*1401 FILLER_27_63
*1402 FILLER_27_83
*1403 FILLER_27_94
*1404 FILLER_28_104
*1405 FILLER_28_120
*1406 FILLER_28_132
*1407 FILLER_28_150
*1408 FILLER_28_156
*1409 FILLER_28_174
*1410 FILLER_28_186
*1411 FILLER_28_19
*1412 FILLER_28_194
*1413 FILLER_28_197
*1414 FILLER_28_203
*1415 FILLER_28_211
*1416 FILLER_28_223
*1417 FILLER_28_236
*1418 FILLER_28_240
*1419 FILLER_28_248
*1420 FILLER_28_253
*1421 FILLER_28_264
*1422 FILLER_28_27
*1423 FILLER_28_275
*1424 FILLER_28_283
*1425 FILLER_28_295
*1426 FILLER_28_33
*1427 FILLER_28_53
*1428 FILLER_28_58
*1429 FILLER_28_62
*1430 FILLER_28_80
*1431 FILLER_28_85
*1432 FILLER_28_89
*1433 FILLER_28_97
*1434 FILLER_29_108
*1435 FILLER_29_113
*1436 FILLER_29_12
*1437 FILLER_29_125
*1438 FILLER_29_129
*1439 FILLER_29_133
*1440 FILLER_29_145
*1441 FILLER_29_157
*1442 FILLER_29_165
*1443 FILLER_29_174
*1444 FILLER_29_182
*1445 FILLER_29_198
*1446 FILLER_29_206
*1447 FILLER_29_213
*1448 FILLER_29_221
*1449 FILLER_29_228
*1450 FILLER_29_241
*1451 FILLER_29_248
*1452 FILLER_29_258
*1453 FILLER_29_272
*1454 FILLER_29_281
*1455 FILLER_29_293
*1456 FILLER_29_3
*1457 FILLER_29_36
*1458 FILLER_29_57
*1459 FILLER_29_65
*1460 FILLER_29_83
*1461 FILLER_29_89
*1462 FILLER_29_95
*1463 FILLER_2_139
*1464 FILLER_2_161
*1465 FILLER_2_181
*1466 FILLER_2_190
*1467 FILLER_2_202
*1468 FILLER_2_210
*1469 FILLER_2_217
*1470 FILLER_2_224
*1471 FILLER_2_236
*1472 FILLER_2_24
*1473 FILLER_2_248
*1474 FILLER_2_253
*1475 FILLER_2_265
*1476 FILLER_2_277
*1477 FILLER_2_289
*1478 FILLER_2_297
*1479 FILLER_2_3
*1480 FILLER_2_32
*1481 FILLER_2_56