*SPEF "ieee 1481-1999"
*DESIGN "tholin_avalonsemi_tbb1143"
*DATE "11:11:11 Fri 11 11, 1111"
*VENDOR "OpenRCX"
*PROGRAM "Parallel Extraction"
*VERSION "1.0"
*DESIGN_FLOW "NAME_SCOPE LOCAL" "PIN_CAP NONE"
*DIVIDER /
*DELIMITER :
*BUS_DELIMITER []
*T_UNIT 1 NS
*C_UNIT 1 PF
*R_UNIT 1 OHM
*L_UNIT 1 HENRY

*NAME_MAP
*1 io_in[0]
*2 io_in[1]
*3 io_in[2]
*4 io_in[3]
*5 io_in[4]
*6 io_in[5]
*7 io_in[6]
*8 io_in[7]
*9 io_out[0]
*10 io_out[1]
*11 io_out[2]
*12 io_out[3]
*13 io_out[4]
*14 io_out[5]
*15 io_out[6]
*16 io_out[7]
*19 CIRCUIT_0\.FCLK
*20 CIRCUIT_0\.GATES_1\.input1\[0\]
*21 CIRCUIT_0\.GATES_1\.input1\[1\]
*22 CIRCUIT_0\.GATES_1\.input1\[2\]
*23 CIRCUIT_0\.GATES_1\.input1\[3\]
*24 CIRCUIT_0\.GATES_11\.input2
*25 CIRCUIT_0\.GATES_11\.result
*26 CIRCUIT_0\.GATES_2\.input2
*27 CIRCUIT_0\.GATES_3\.input2
*28 CIRCUIT_0\.GATES_4\.input1\[0\]
*29 CIRCUIT_0\.GATES_4\.input1\[1\]
*30 CIRCUIT_0\.GATES_4\.input1\[2\]
*31 CIRCUIT_0\.GATES_4\.input1\[3\]
*32 CIRCUIT_0\.GATES_5\.input2
*33 CIRCUIT_0\.MEMORY_18\.clock
*34 CIRCUIT_0\.MEMORY_18\.d
*35 CIRCUIT_0\.MEMORY_18\.s_currentState
*36 CIRCUIT_0\.MEMORY_19\.d
*37 CIRCUIT_0\.MEMORY_19\.s_currentState
*38 CIRCUIT_0\.MEMORY_20\.d
*39 CIRCUIT_0\.MEMORY_20\.s_currentState
*40 CIRCUIT_0\.MEMORY_21\.d
*41 CIRCUIT_0\.MEMORY_21\.s_currentState
*42 CIRCUIT_0\.MEMORY_22\.d
*43 CIRCUIT_0\.MEMORY_22\.s_currentState
*44 CIRCUIT_0\.MEMORY_23\.s_currentState
*45 CIRCUIT_0\.MEMORY_24\.d
*46 CIRCUIT_0\.MEMORY_24\.s_currentState
*47 CIRCUIT_0\.MEMORY_25\.d
*48 CIRCUIT_0\.MEMORY_25\.s_currentState
*49 CIRCUIT_0\.MEMORY_26\.s_currentState
*50 CIRCUIT_0\.MEMORY_28\.s_currentState
*51 CIRCUIT_0\.MEMORY_29\.s_currentState
*52 CIRCUIT_0\.S0
*53 CIRCUIT_0\.S1
*54 CIRCUIT_0\.S2
*55 CIRCUIT_0\.S3
*56 CIRCUIT_0\.S4
*57 CIRCUIT_0\.S5
*58 CIRCUIT_0\.s_logisimNet48
*59 CIRCUIT_0\.tone_generator_1\.GATES_1\.result
*60 CIRCUIT_0\.tone_generator_1\.GATES_2\.result
*61 CIRCUIT_0\.tone_generator_1\.GATES_3\.result
*62 CIRCUIT_0\.tone_generator_1\.MEMORY_10\.s_currentState
*63 CIRCUIT_0\.tone_generator_1\.MEMORY_11\.s_currentState
*64 CIRCUIT_0\.tone_generator_1\.MEMORY_12\.s_currentState
*65 CIRCUIT_0\.tone_generator_1\.MEMORY_13\.s_currentState
*66 CIRCUIT_0\.tone_generator_1\.MEMORY_14\.s_currentState
*67 CIRCUIT_0\.tone_generator_1\.MEMORY_15\.s_currentState
*68 CIRCUIT_0\.tone_generator_1\.MEMORY_16\.s_currentState
*69 CIRCUIT_0\.tone_generator_1\.MEMORY_17\.s_currentState
*70 CIRCUIT_0\.tone_generator_1\.MEMORY_18\.s_currentState
*71 CIRCUIT_0\.tone_generator_1\.MEMORY_19\.s_currentState
*72 CIRCUIT_0\.tone_generator_1\.MEMORY_20\.s_currentState
*73 CIRCUIT_0\.tone_generator_1\.MEMORY_4\.s_currentState
*74 CIRCUIT_0\.tone_generator_1\.MEMORY_6\.s_currentState
*75 CIRCUIT_0\.tone_generator_1\.MEMORY_7\.s_currentState
*76 CIRCUIT_0\.tone_generator_1\.MEMORY_8\.s_currentState
*77 CIRCUIT_0\.tone_generator_1\.MEMORY_9\.s_currentState
*78 CIRCUIT_0\.tone_generator_1\.tone_generator_2_1\.GATES_10\.input2
*79 CIRCUIT_0\.tone_generator_1\.tone_generator_2_1\.GATES_11\.input2
*80 CIRCUIT_0\.tone_generator_1\.tone_generator_2_1\.GATES_12\.input2
*81 CIRCUIT_0\.tone_generator_1\.tone_generator_2_1\.GATES_13\.input2
*82 CIRCUIT_0\.tone_generator_1\.tone_generator_2_1\.GATES_14\.input2
*83 CIRCUIT_0\.tone_generator_1\.tone_generator_2_1\.GATES_15\.input2
*84 CIRCUIT_0\.tone_generator_1\.tone_generator_2_1\.GATES_16\.input2
*85 CIRCUIT_0\.tone_generator_1\.tone_generator_2_1\.GATES_17\.input2
*86 CIRCUIT_0\.tone_generator_1\.tone_generator_2_1\.GATES_27\.result
*87 CIRCUIT_0\.tone_generator_1\.tone_generator_2_1\.GATES_4\.input1
*88 CIRCUIT_0\.tone_generator_1\.tone_generator_2_1\.GATES_6\.result
*89 CIRCUIT_0\.tone_generator_1\.tone_generator_2_1\.GATES_7\.input2
*90 CIRCUIT_0\.tone_generator_1\.tone_generator_2_1\.GATES_8\.input2
*91 CIRCUIT_0\.tone_generator_1\.tone_generator_2_1\.GATES_9\.input2
*92 CIRCUIT_0\.tone_generator_1\.tone_generator_2_1\.MEMORY_28\.clock
*93 CIRCUIT_0\.tone_generator_1\.tone_generator_2_1\.MEMORY_28\.d
*94 CIRCUIT_0\.tone_generator_1\.tone_generator_2_1\.MEMORY_28\.s_currentState
*95 CIRCUIT_0\.tone_generator_1\.tone_generator_2_1\.MEMORY_29\.d
*96 CIRCUIT_0\.tone_generator_1\.tone_generator_2_1\.MEMORY_29\.s_currentState
*97 CIRCUIT_0\.tone_generator_1\.tone_generator_2_1\.MEMORY_30\.d
*98 CIRCUIT_0\.tone_generator_1\.tone_generator_2_1\.MEMORY_30\.s_currentState
*99 CIRCUIT_0\.tone_generator_1\.tone_generator_2_1\.MEMORY_31\.d
*100 CIRCUIT_0\.tone_generator_1\.tone_generator_2_1\.MEMORY_31\.s_currentState
*101 CIRCUIT_0\.tone_generator_1\.tone_generator_2_1\.MEMORY_32\.d
*102 CIRCUIT_0\.tone_generator_1\.tone_generator_2_1\.MEMORY_32\.s_currentState
*103 CIRCUIT_0\.tone_generator_1\.tone_generator_2_1\.MEMORY_33\.d
*104 CIRCUIT_0\.tone_generator_1\.tone_generator_2_1\.MEMORY_33\.s_currentState
*105 CIRCUIT_0\.tone_generator_1\.tone_generator_2_1\.MEMORY_34\.d
*106 CIRCUIT_0\.tone_generator_1\.tone_generator_2_1\.MEMORY_34\.s_currentState
*107 CIRCUIT_0\.tone_generator_1\.tone_generator_2_1\.MEMORY_35\.d
*108 CIRCUIT_0\.tone_generator_1\.tone_generator_2_1\.MEMORY_35\.s_currentState
*109 CIRCUIT_0\.tone_generator_1\.tone_generator_2_1\.MEMORY_36\.d
*110 CIRCUIT_0\.tone_generator_1\.tone_generator_2_1\.MEMORY_36\.s_currentState
*111 CIRCUIT_0\.tone_generator_1\.tone_generator_2_1\.MEMORY_37\.d
*112 CIRCUIT_0\.tone_generator_1\.tone_generator_2_1\.MEMORY_37\.s_currentState
*113 CIRCUIT_0\.tone_generator_1\.tone_generator_2_1\.MEMORY_38\.s_currentState
*114 CIRCUIT_0\.tone_generator_1\.tone_generator_2_1\.MEMORY_39\.d
*115 CIRCUIT_0\.tone_generator_1\.tone_generator_2_1\.MEMORY_39\.s_currentState
*116 CIRCUIT_0\.tone_generator_2_1\.GATES_10\.input2
*117 CIRCUIT_0\.tone_generator_2_1\.GATES_11\.input2
*118 CIRCUIT_0\.tone_generator_2_1\.GATES_12\.input2
*119 CIRCUIT_0\.tone_generator_2_1\.GATES_13\.input2
*120 CIRCUIT_0\.tone_generator_2_1\.GATES_14\.input2
*121 CIRCUIT_0\.tone_generator_2_1\.GATES_15\.input2
*122 CIRCUIT_0\.tone_generator_2_1\.GATES_16\.input2
*123 CIRCUIT_0\.tone_generator_2_1\.GATES_17\.input2
*124 CIRCUIT_0\.tone_generator_2_1\.GATES_27\.result
*125 CIRCUIT_0\.tone_generator_2_1\.GATES_6\.result
*126 CIRCUIT_0\.tone_generator_2_1\.GATES_7\.input2
*127 CIRCUIT_0\.tone_generator_2_1\.GATES_8\.input2
*128 CIRCUIT_0\.tone_generator_2_1\.GATES_9\.input2
*129 CIRCUIT_0\.tone_generator_2_1\.MEMORY_28\.clock
*130 CIRCUIT_0\.tone_generator_2_1\.MEMORY_28\.d
*131 CIRCUIT_0\.tone_generator_2_1\.MEMORY_28\.s_currentState
*132 CIRCUIT_0\.tone_generator_2_1\.MEMORY_29\.d
*133 CIRCUIT_0\.tone_generator_2_1\.MEMORY_29\.s_currentState
*134 CIRCUIT_0\.tone_generator_2_1\.MEMORY_30\.d
*135 CIRCUIT_0\.tone_generator_2_1\.MEMORY_30\.s_currentState
*136 CIRCUIT_0\.tone_generator_2_1\.MEMORY_31\.d
*137 CIRCUIT_0\.tone_generator_2_1\.MEMORY_31\.s_currentState
*138 CIRCUIT_0\.tone_generator_2_1\.MEMORY_32\.d
*139 CIRCUIT_0\.tone_generator_2_1\.MEMORY_32\.s_currentState
*140 CIRCUIT_0\.tone_generator_2_1\.MEMORY_33\.d
*141 CIRCUIT_0\.tone_generator_2_1\.MEMORY_33\.s_currentState
*142 CIRCUIT_0\.tone_generator_2_1\.MEMORY_34\.d
*143 CIRCUIT_0\.tone_generator_2_1\.MEMORY_34\.s_currentState
*144 CIRCUIT_0\.tone_generator_2_1\.MEMORY_35\.d
*145 CIRCUIT_0\.tone_generator_2_1\.MEMORY_35\.s_currentState
*146 CIRCUIT_0\.tone_generator_2_1\.MEMORY_36\.d
*147 CIRCUIT_0\.tone_generator_2_1\.MEMORY_36\.s_currentState
*148 CIRCUIT_0\.tone_generator_2_1\.MEMORY_37\.d
*149 CIRCUIT_0\.tone_generator_2_1\.MEMORY_37\.s_currentState
*150 CIRCUIT_0\.tone_generator_2_1\.MEMORY_38\.s_currentState
*151 CIRCUIT_0\.tone_generator_2_1\.MEMORY_39\.d
*152 CIRCUIT_0\.tone_generator_2_1\.MEMORY_39\.s_currentState
*153 CIRCUIT_0\.tone_generator_2_2\.GATES_10\.input2
*154 CIRCUIT_0\.tone_generator_2_2\.GATES_11\.input2
*155 CIRCUIT_0\.tone_generator_2_2\.GATES_12\.input2
*156 CIRCUIT_0\.tone_generator_2_2\.GATES_13\.input2
*157 CIRCUIT_0\.tone_generator_2_2\.GATES_14\.input2
*158 CIRCUIT_0\.tone_generator_2_2\.GATES_15\.input2
*159 CIRCUIT_0\.tone_generator_2_2\.GATES_16\.input2
*160 CIRCUIT_0\.tone_generator_2_2\.GATES_17\.input2
*161 CIRCUIT_0\.tone_generator_2_2\.GATES_27\.result
*162 CIRCUIT_0\.tone_generator_2_2\.GATES_6\.result
*163 CIRCUIT_0\.tone_generator_2_2\.GATES_7\.input2
*164 CIRCUIT_0\.tone_generator_2_2\.GATES_8\.input2
*165 CIRCUIT_0\.tone_generator_2_2\.GATES_9\.input2
*166 CIRCUIT_0\.tone_generator_2_2\.MEMORY_28\.clock
*167 CIRCUIT_0\.tone_generator_2_2\.MEMORY_28\.d
*168 CIRCUIT_0\.tone_generator_2_2\.MEMORY_28\.s_currentState
*169 CIRCUIT_0\.tone_generator_2_2\.MEMORY_29\.d
*170 CIRCUIT_0\.tone_generator_2_2\.MEMORY_29\.s_currentState
*171 CIRCUIT_0\.tone_generator_2_2\.MEMORY_30\.d
*172 CIRCUIT_0\.tone_generator_2_2\.MEMORY_30\.s_currentState
*173 CIRCUIT_0\.tone_generator_2_2\.MEMORY_31\.d
*174 CIRCUIT_0\.tone_generator_2_2\.MEMORY_31\.s_currentState
*175 CIRCUIT_0\.tone_generator_2_2\.MEMORY_32\.d
*176 CIRCUIT_0\.tone_generator_2_2\.MEMORY_32\.s_currentState
*177 CIRCUIT_0\.tone_generator_2_2\.MEMORY_33\.d
*178 CIRCUIT_0\.tone_generator_2_2\.MEMORY_33\.s_currentState
*179 CIRCUIT_0\.tone_generator_2_2\.MEMORY_34\.d
*180 CIRCUIT_0\.tone_generator_2_2\.MEMORY_34\.s_currentState
*181 CIRCUIT_0\.tone_generator_2_2\.MEMORY_35\.d
*182 CIRCUIT_0\.tone_generator_2_2\.MEMORY_35\.s_currentState
*183 CIRCUIT_0\.tone_generator_2_2\.MEMORY_36\.d
*184 CIRCUIT_0\.tone_generator_2_2\.MEMORY_36\.s_currentState
*185 CIRCUIT_0\.tone_generator_2_2\.MEMORY_37\.d
*186 CIRCUIT_0\.tone_generator_2_2\.MEMORY_37\.s_currentState
*187 CIRCUIT_0\.tone_generator_2_2\.MEMORY_38\.s_currentState
*188 CIRCUIT_0\.tone_generator_2_2\.MEMORY_39\.d
*189 CIRCUIT_0\.tone_generator_2_2\.MEMORY_39\.s_currentState
*190 CIRCUIT_0\.triangle_wave_generator_1\.GATES_10\.input2
*191 CIRCUIT_0\.triangle_wave_generator_1\.GATES_11\.input2
*192 CIRCUIT_0\.triangle_wave_generator_1\.GATES_12\.input2
*193 CIRCUIT_0\.triangle_wave_generator_1\.GATES_13\.input2
*194 CIRCUIT_0\.triangle_wave_generator_1\.GATES_14\.input2
*195 CIRCUIT_0\.triangle_wave_generator_1\.GATES_15\.input2
*196 CIRCUIT_0\.triangle_wave_generator_1\.GATES_16\.input2
*197 CIRCUIT_0\.triangle_wave_generator_1\.GATES_17\.input2
*198 CIRCUIT_0\.triangle_wave_generator_1\.GATES_27\.result
*199 CIRCUIT_0\.triangle_wave_generator_1\.GATES_6\.result
*200 CIRCUIT_0\.triangle_wave_generator_1\.GATES_7\.input2
*201 CIRCUIT_0\.triangle_wave_generator_1\.GATES_8\.input2
*202 CIRCUIT_0\.triangle_wave_generator_1\.GATES_9\.input2
*203 CIRCUIT_0\.triangle_wave_generator_1\.MEMORY_28\.clock
*204 CIRCUIT_0\.triangle_wave_generator_1\.MEMORY_28\.d
*205 CIRCUIT_0\.triangle_wave_generator_1\.MEMORY_28\.s_currentState
*206 CIRCUIT_0\.triangle_wave_generator_1\.MEMORY_29\.d
*207 CIRCUIT_0\.triangle_wave_generator_1\.MEMORY_29\.s_currentState
*208 CIRCUIT_0\.triangle_wave_generator_1\.MEMORY_30\.d
*209 CIRCUIT_0\.triangle_wave_generator_1\.MEMORY_30\.s_currentState
*210 CIRCUIT_0\.triangle_wave_generator_1\.MEMORY_31\.d
*211 CIRCUIT_0\.triangle_wave_generator_1\.MEMORY_31\.s_currentState
*212 CIRCUIT_0\.triangle_wave_generator_1\.MEMORY_32\.d
*213 CIRCUIT_0\.triangle_wave_generator_1\.MEMORY_32\.s_currentState
*214 CIRCUIT_0\.triangle_wave_generator_1\.MEMORY_33\.d
*215 CIRCUIT_0\.triangle_wave_generator_1\.MEMORY_33\.s_currentState
*216 CIRCUIT_0\.triangle_wave_generator_1\.MEMORY_34\.d
*217 CIRCUIT_0\.triangle_wave_generator_1\.MEMORY_34\.s_currentState
*218 CIRCUIT_0\.triangle_wave_generator_1\.MEMORY_35\.d
*219 CIRCUIT_0\.triangle_wave_generator_1\.MEMORY_35\.s_currentState
*220 CIRCUIT_0\.triangle_wave_generator_1\.MEMORY_36\.d
*221 CIRCUIT_0\.triangle_wave_generator_1\.MEMORY_36\.s_currentState
*222 CIRCUIT_0\.triangle_wave_generator_1\.MEMORY_37\.d
*223 CIRCUIT_0\.triangle_wave_generator_1\.MEMORY_37\.s_currentState
*224 CIRCUIT_0\.triangle_wave_generator_1\.MEMORY_38\.s_currentState
*225 CIRCUIT_0\.triangle_wave_generator_1\.MEMORY_39\.d
*226 CIRCUIT_0\.triangle_wave_generator_1\.MEMORY_39\.s_currentState
*227 CIRCUIT_0\.triangle_wave_generator_1\.MEMORY_40\.clock
*228 CIRCUIT_0\.triangle_wave_generator_1\.MEMORY_40\.d
*229 CIRCUIT_0\.triangle_wave_generator_1\.MEMORY_40\.s_currentState
*230 CIRCUIT_0\.triangle_wave_generator_1\.MEMORY_41\.clock
*231 CIRCUIT_0\.triangle_wave_generator_1\.MEMORY_41\.s_currentState
*232 CIRCUIT_0\.triangle_wave_generator_1\.MEMORY_42\.s_currentState
*233 _000_
*234 _001_
*235 _002_
*236 _003_
*237 _004_
*238 _005_
*239 _006_
*240 _007_
*241 _008_
*242 _009_
*243 _011_
*244 _013_
*245 _015_
*246 _017_
*247 _019_
*248 _021_
*249 _024_
*250 _026_
*251 _028_
*252 _030_
*253 _032_
*254 _034_
*255 _036_
*256 _038_
*257 _041_
*258 _043_
*259 _045_
*260 _047_
*261 _049_
*262 _051_
*263 _052_
*264 _053_
*265 _054_
*266 _056_
*267 _058_
*268 _060_
*269 _062_
*270 _065_
*271 _067_
*272 _069_
*273 _071_
*274 _073_
*275 _075_
*276 _077_
*277 _079_
*278 _081_
*279 _083_
*280 _086_
*281 _088_
*282 _090_
*283 _092_
*284 _094_
*285 _096_
*286 _097_
*287 _098_
*288 _099_
*289 _100_
*290 _101_
*291 _102_
*292 _104_
*293 _106_
*294 _109_
*295 _111_
*296 _113_
*297 _115_
*298 _117_
*299 _119_
*300 _120_
*301 _121_
*302 _122_
*303 _123_
*304 _124_
*305 _125_
*306 _126_
*307 _127_
*308 _128_
*309 _129_
*310 _130_
*311 _131_
*312 _132_
*313 _133_
*314 _134_
*315 _135_
*316 _136_
*317 _137_
*318 _138_
*319 _139_
*320 _140_
*321 _141_
*322 _142_
*323 _143_
*324 _144_
*325 _145_
*326 _146_
*327 _147_
*328 _148_
*329 _149_
*330 _150_
*331 _151_
*332 _152_
*333 _153_
*334 _154_
*335 _155_
*336 _156_
*337 _157_
*338 _158_
*339 _159_
*340 _160_
*341 _161_
*342 _162_
*343 _163_
*344 _164_
*345 _165_
*346 _166_
*347 _167_
*348 _168_
*349 _169_
*350 _170_
*351 _171_
*352 _172_
*353 _173_
*354 _174_
*355 _175_
*356 _176_
*357 _177_
*358 _178_
*359 _179_
*360 _180_
*361 _181_
*362 _182_
*363 _183_
*364 _184_
*365 _185_
*366 _186_
*367 _187_
*368 _188_
*369 _189_
*370 _190_
*371 _191_
*372 _192_
*373 _193_
*374 _194_
*375 _195_
*376 _196_
*377 _197_
*378 _198_
*379 _199_
*380 _200_
*381 _201_
*382 _202_
*383 _203_
*384 _204_
*385 _205_
*386 _206_
*387 _207_
*388 _208_
*389 _209_
*390 _210_
*391 _211_
*392 _212_
*393 _213_
*394 _214_
*395 _215_
*396 _216_
*397 _217_
*398 _218_
*399 _219_
*400 _220_
*401 _221_
*402 _222_
*403 _223_
*404 _224_
*405 _225_
*406 _226_
*407 _227_
*408 _228_
*409 _229_
*410 _230_
*411 _231_
*412 _232_
*413 _233_
*414 _234_
*415 _235_
*416 _236_
*417 _237_
*418 _238_
*419 _239_
*420 _240_
*421 _241_
*422 _242_
*423 _243_
*424 _244_
*425 _245_
*426 _246_
*427 _247_
*428 _248_
*429 _249_
*430 _250_
*431 _251_
*432 _252_
*433 _253_
*434 _254_
*435 _255_
*436 _256_
*437 _257_
*438 _258_
*439 _259_
*440 _260_
*441 _261_
*442 _262_
*443 _263_
*444 _264_
*445 _265_
*446 _266_
*447 _267_
*448 _268_
*449 _269_
*450 _270_
*451 _271_
*452 _272_
*453 _273_
*454 _274_
*455 _275_
*456 _276_
*457 _277_
*458 _278_
*459 _279_
*460 _280_
*461 _281_
*462 _282_
*463 _283_
*464 _284_
*465 _285_
*466 _286_
*467 _287_
*468 _288_
*469 _289_
*470 _290_
*471 _291_
*472 _292_
*473 _293_
*474 _294_
*475 _295_
*476 _296_
*477 _297_
*478 _298_
*479 _299_
*480 _300_
*481 _301_
*482 _302_
*483 _303_
*484 _304_
*485 _305_
*486 _306_
*487 _307_
*488 _308_
*489 _309_
*490 _310_
*491 _311_
*492 _312_
*493 _313_
*494 _314_
*495 _315_
*496 _316_
*497 _317_
*498 _318_
*499 _319_
*500 _320_
*501 _321_
*502 _322_
*503 _323_
*504 _324_
*505 _325_
*506 _326_
*507 _327_
*508 _328_
*509 _329_
*510 _330_
*511 _331_
*512 _332_
*513 _333_
*514 _334_
*515 _335_
*516 _336_
*517 _337_
*518 _338_
*519 _339_
*520 _340_
*521 _341_
*522 _342_
*523 _343_
*524 _344_
*525 _345_
*526 _346_
*527 _347_
*528 _348_
*529 _349_
*530 _350_
*531 _351_
*532 _352_
*533 _353_
*534 _354_
*535 _355_
*536 _356_
*537 _357_
*538 _358_
*539 _359_
*540 _360_
*541 _361_
*542 _362_
*543 _363_
*544 _364_
*545 _365_
*546 _366_
*547 _367_
*548 _368_
*549 _369_
*550 _370_
*551 _371_
*552 _372_
*553 _373_
*554 _374_
*555 _375_
*556 clknet_0_CIRCUIT_0\.tone_generator_1\.tone_generator_2_1\.GATES_6\.result
*557 clknet_0_CIRCUIT_0\.tone_generator_2_1\.GATES_6\.result
*558 clknet_0_CIRCUIT_0\.tone_generator_2_2\.GATES_6\.result
*559 clknet_0_CIRCUIT_0\.triangle_wave_generator_1\.GATES_6\.result
*560 clknet_0__001_
*561 clknet_0__172_
*562 clknet_0__173_
*563 clknet_0__174_
*564 clknet_0__191_
*565 clknet_0__214_
*566 clknet_0__215_
*567 clknet_0__236_
*568 clknet_0__237_
*569 clknet_0__260_
*570 clknet_0__261_
*571 clknet_0__281_
*572 clknet_0__282_
*573 clknet_0__310_
*574 clknet_0__312_
*575 clknet_0_io_in[0]
*576 clknet_1_0__leaf_CIRCUIT_0\.tone_generator_1\.tone_generator_2_1\.GATES_6\.result
*577 clknet_1_0__leaf_CIRCUIT_0\.tone_generator_2_1\.GATES_6\.result
*578 clknet_1_0__leaf_CIRCUIT_0\.tone_generator_2_2\.GATES_6\.result
*579 clknet_1_0__leaf_CIRCUIT_0\.triangle_wave_generator_1\.GATES_6\.result
*580 clknet_1_0__leaf__001_
*581 clknet_1_0__leaf__172_
*582 clknet_1_0__leaf__173_
*583 clknet_1_0__leaf__174_
*584 clknet_1_0__leaf__191_
*585 clknet_1_0__leaf__214_
*586 clknet_1_0__leaf__215_
*587 clknet_1_0__leaf__236_
*588 clknet_1_0__leaf__237_
*589 clknet_1_0__leaf__260_
*590 clknet_1_0__leaf__261_
*591 clknet_1_0__leaf__281_
*592 clknet_1_0__leaf__282_
*593 clknet_1_0__leaf__310_
*594 clknet_1_0__leaf__312_
*595 clknet_1_1__leaf_CIRCUIT_0\.tone_generator_1\.tone_generator_2_1\.GATES_6\.result
*596 clknet_1_1__leaf_CIRCUIT_0\.tone_generator_2_1\.GATES_6\.result
*597 clknet_1_1__leaf_CIRCUIT_0\.tone_generator_2_2\.GATES_6\.result
*598 clknet_1_1__leaf_CIRCUIT_0\.triangle_wave_generator_1\.GATES_6\.result
*599 clknet_1_1__leaf__001_
*600 clknet_1_1__leaf__172_
*601 clknet_1_1__leaf__173_
*602 clknet_1_1__leaf__174_
*603 clknet_1_1__leaf__191_
*604 clknet_1_1__leaf__214_
*605 clknet_1_1__leaf__215_
*606 clknet_1_1__leaf__236_
*607 clknet_1_1__leaf__237_
*608 clknet_1_1__leaf__260_
*609 clknet_1_1__leaf__261_
*610 clknet_1_1__leaf__281_
*611 clknet_1_1__leaf__282_
*612 clknet_1_1__leaf__310_
*613 clknet_1_1__leaf__312_
*614 clknet_3_0__leaf_io_in[0]
*615 clknet_3_1__leaf_io_in[0]
*616 clknet_3_2__leaf_io_in[0]
*617 clknet_3_3__leaf_io_in[0]
*618 clknet_3_4__leaf_io_in[0]
*619 clknet_3_5__leaf_io_in[0]
*620 clknet_3_6__leaf_io_in[0]
*621 clknet_3_7__leaf_io_in[0]
*622 net1
*623 net10
*624 net11
*625 net12
*626 net13
*627 net14
*628 net15
*629 net16
*630 net17
*631 net18
*632 net19
*633 net2
*634 net20
*635 net21
*636 net22
*637 net23
*638 net24
*639 net25
*640 net26
*641 net27
*642 net28
*643 net29
*644 net3
*645 net30
*646 net31
*647 net32
*648 net33
*649 net34
*650 net35
*651 net36
*652 net37
*653 net38
*654 net39
*655 net4
*656 net40
*657 net41
*658 net42
*659 net43
*660 net44
*661 net45
*662 net46
*663 net47
*664 net48
*665 net49
*666 net5
*667 net50
*668 net51
*669 net52
*670 net53
*671 net54
*672 net55
*673 net56
*674 net57
*675 net58
*676 net59
*677 net6
*678 net60
*679 net61
*680 net62
*681 net63
*682 net64
*683 net65
*684 net66
*685 net7
*686 net8
*687 net9
*688 shifter\[0\]
*689 shifter\[1\]
*690 shifter\[2\]
*691 shifter\[3\]
*692 shifter\[4\]
*693 ANTENNA_0
*694 ANTENNA_1
*695 ANTENNA_10
*696 ANTENNA_11
*697 ANTENNA_12
*698 ANTENNA_13
*699 ANTENNA_14
*700 ANTENNA_15
*701 ANTENNA_16
*702 ANTENNA_2
*703 ANTENNA_3
*704 ANTENNA_4
*705 ANTENNA_5
*706 ANTENNA_6
*707 ANTENNA_7
*708 ANTENNA_8
*709 ANTENNA_9
*710 FILLER_0_108
*711 FILLER_0_133
*712 FILLER_0_137
*713 FILLER_0_144
*714 FILLER_0_164
*715 FILLER_0_185
*716 FILLER_0_192
*717 FILLER_0_203
*718 FILLER_0_210
*719 FILLER_0_217
*720 FILLER_0_223
*721 FILLER_0_228
*722 FILLER_0_24
*723 FILLER_0_240
*724 FILLER_0_253
*725 FILLER_0_259
*726 FILLER_0_271
*727 FILLER_0_279
*728 FILLER_0_281
*729 FILLER_0_29
*730 FILLER_0_293
*731 FILLER_0_3
*732 FILLER_0_52
*733 FILLER_0_57
*734 FILLER_0_7
*735 FILLER_0_78
*736 FILLER_0_82
*737 FILLER_0_85
*738 FILLER_10_120
*739 FILLER_10_127
*740 FILLER_10_136
*741 FILLER_10_154
*742 FILLER_10_178
*743 FILLER_10_184
*744 FILLER_10_192
*745 FILLER_10_21
*746 FILLER_10_237
*747 FILLER_10_248
*748 FILLER_10_253
*749 FILLER_10_264
*750 FILLER_10_268
*751 FILLER_10_27
*752 FILLER_10_280
*753 FILLER_10_29
*754 FILLER_10_292
*755 FILLER_10_298
*756 FILLER_10_3
*757 FILLER_10_51
*758 FILLER_10_76
*759 FILLER_10_90
*760 FILLER_10_94
*761 FILLER_10_97
*762 FILLER_11_107
*763 FILLER_11_111
*764 FILLER_11_116
*765 FILLER_11_140
*766 FILLER_11_164
*767 FILLER_11_169
*768 FILLER_11_193
*769 FILLER_11_217
*770 FILLER_11_223
*771 FILLER_11_233
*772 FILLER_11_240
*773 FILLER_11_247
*774 FILLER_11_259
*775 FILLER_11_271
*776 FILLER_11_279
*777 FILLER_11_28
*778 FILLER_11_281
*779 FILLER_11_293
*780 FILLER_11_3
*781 FILLER_11_52
*782 FILLER_11_62
*783 FILLER_11_7
*784 FILLER_11_87
*785 FILLER_12_112
*786 FILLER_12_136
*787 FILLER_12_154
*788 FILLER_12_178
*789 FILLER_12_185
*790 FILLER_12_192
*791 FILLER_12_197
*792 FILLER_12_209
*793 FILLER_12_219
*794 FILLER_12_230
*795 FILLER_12_24
*796 FILLER_12_242
*797 FILLER_12_250
*798 FILLER_12_253
*799 FILLER_12_265
*800 FILLER_12_277
*801 FILLER_12_281
*802 FILLER_12_291
*803 FILLER_12_3
*804 FILLER_12_32
*805 FILLER_12_56
*806 FILLER_12_7
*807 FILLER_12_80
*808 FILLER_12_88
*809 FILLER_13_10
*810 FILLER_13_108
*811 FILLER_13_113
*812 FILLER_13_126
*813 FILLER_13_14
*814 FILLER_13_151
*815 FILLER_13_158
*816 FILLER_13_166
*817 FILLER_13_172
*818 FILLER_13_181
*819 FILLER_13_205
*820 FILLER_13_212
*821 FILLER_13_219
*822 FILLER_13_223
*823 FILLER_13_225
*824 FILLER_13_231
*825 FILLER_13_242
*826 FILLER_13_254
*827 FILLER_13_266
*828 FILLER_13_278
*829 FILLER_13_281
*830 FILLER_13_293
*831 FILLER_13_3
*832 FILLER_13_32
*833 FILLER_13_52
*834 FILLER_13_57
*835 FILLER_13_84
*836 FILLER_14_102
*837 FILLER_14_127
*838 FILLER_14_136
*839 FILLER_14_141
*840 FILLER_14_163
*841 FILLER_14_188
*842 FILLER_14_197
*843 FILLER_14_205
*844 FILLER_14_216
*845 FILLER_14_227
*846 FILLER_14_24
*847 FILLER_14_240
*848 FILLER_14_253
*849 FILLER_14_257
*850 FILLER_14_269
*851 FILLER_14_281
*852 FILLER_14_293
*853 FILLER_14_3
*854 FILLER_14_32
*855 FILLER_14_56
*856 FILLER_14_7
*857 FILLER_14_80
*858 FILLER_14_85
*859 FILLER_15_101
*860 FILLER_15_108
*861 FILLER_15_136
*862 FILLER_15_14
*863 FILLER_15_161
*864 FILLER_15_167
*865 FILLER_15_190
*866 FILLER_15_215
*867 FILLER_15_223
*868 FILLER_15_225
*869 FILLER_15_233
*870 FILLER_15_244
*871 FILLER_15_252
*872 FILLER_15_256
*873 FILLER_15_263
*874 FILLER_15_275
*875 FILLER_15_279
*876 FILLER_15_281
*877 FILLER_15_293
*878 FILLER_15_32
*879 FILLER_15_52
*880 FILLER_15_6
*881 FILLER_15_60
*882 FILLER_15_69
*883 FILLER_15_93
*884 FILLER_15_97
*885 FILLER_16_101
*886 FILLER_16_107
*887 FILLER_16_128
*888 FILLER_16_135
*889 FILLER_16_139
*890 FILLER_16_154
*891 FILLER_16_179
*892 FILLER_16_187
*893 FILLER_16_191
*894 FILLER_16_195
*895 FILLER_16_197
*896 FILLER_16_221
*897 FILLER_16_228
*898 FILLER_16_235
*899 FILLER_16_24
*900 FILLER_16_242
*901 FILLER_16_250
*902 FILLER_16_262
*903 FILLER_16_266
*904 FILLER_16_278
*905 FILLER_16_290
*906 FILLER_16_298
*907 FILLER_16_3
*908 FILLER_16_32
*909 FILLER_16_39
*910 FILLER_16_43
*911 FILLER_16_60
*912 FILLER_16_7
*913 FILLER_16_80
*914 FILLER_17_101
*915 FILLER_17_108
*916 FILLER_17_116
*917 FILLER_17_14
*918 FILLER_17_140
*919 FILLER_17_164
*920 FILLER_17_178
*921 FILLER_17_205
*922 FILLER_17_216
*923 FILLER_17_228
*924 FILLER_17_240
*925 FILLER_17_252
*926 FILLER_17_264
*927 FILLER_17_276
*928 FILLER_17_281
*929 FILLER_17_293
*930 FILLER_17_36
*931 FILLER_17_48
*932 FILLER_17_6
*933 FILLER_17_60
*934 FILLER_17_67
*935 FILLER_17_93
*936 FILLER_17_97
*937 FILLER_18_109
*938 FILLER_18_115
*939 FILLER_18_136
*940 FILLER_18_154
*941 FILLER_18_178
*942 FILLER_18_182
*943 FILLER_18_186
*944 FILLER_18_194
*945 FILLER_18_21
*946 FILLER_18_217
*947 FILLER_18_224
*948 FILLER_18_231
*949 FILLER_18_238
*950 FILLER_18_250
*951 FILLER_18_253
*952 FILLER_18_265
*953 FILLER_18_27
*954 FILLER_18_277
*955 FILLER_18_289
*956 FILLER_18_29
*957 FILLER_18_297
*958 FILLER_18_3
*959 FILLER_18_41
*960 FILLER_18_60
*961 FILLER_18_80
*962 FILLER_18_85
*963 FILLER_19_101
*964 FILLER_19_108
*965 FILLER_19_136
*966 FILLER_19_162
*967 FILLER_19_19
*968 FILLER_19_190
*969 FILLER_19_215
*970 FILLER_19_223
*971 FILLER_19_234
*972 FILLER_19_241
*973 FILLER_19_253
*974 FILLER_19_259
*975 FILLER_19_263
*976 FILLER_19_27
*977 FILLER_19_275
*978 FILLER_19_279
*979 FILLER_19_281
*980 FILLER_19_293
*981 FILLER_19_44
*982 FILLER_19_73
*983 FILLER_1_108
*984 FILLER_1_118
*985 FILLER_1_12
*986 FILLER_1_125
*987 FILLER_1_149
*988 FILLER_1_164
*989 FILLER_1_185
*990 FILLER_1_205
*991 FILLER_1_212
*992 FILLER_1_219
*993 FILLER_1_223
*994 FILLER_1_225
*995 FILLER_1_238
*996 FILLER_1_256
*997 FILLER_1_269
*998 FILLER_1_277
*999 FILLER_1_281
*1000 FILLER_1_293
*1001 FILLER_1_3
*1002 FILLER_1_36
*1003 FILLER_1_43
*1004 FILLER_1_52
*1005 FILLER_1_60
*1006 FILLER_1_84
*1007 FILLER_20_108
*1008 FILLER_20_133
*1009 FILLER_20_139
*1010 FILLER_20_141
*1011 FILLER_20_164
*1012 FILLER_20_188
*1013 FILLER_20_20
*1014 FILLER_20_217
*1015 FILLER_20_241
*1016 FILLER_20_249
*1017 FILLER_20_253
*1018 FILLER_20_265
*1019 FILLER_20_270
*1020 FILLER_20_281
*1021 FILLER_20_295
*1022 FILLER_20_3
*1023 FILLER_20_45
*1024 FILLER_20_57
*1025 FILLER_20_76
*1026 FILLER_20_85
*1027 FILLER_20_91
*1028 FILLER_21_108
*1029 FILLER_21_116
*1030 FILLER_21_125
*1031 FILLER_21_150
*1032 FILLER_21_162
*1033 FILLER_21_169
*1034 FILLER_21_193
*1035 FILLER_21_20
*1036 FILLER_21_217
*1037 FILLER_21_223
*1038 FILLER_21_234
*1039 FILLER_21_244
*1040 FILLER_21_251
*1041 FILLER_21_263
*1042 FILLER_21_275
*1043 FILLER_21_279
*1044 FILLER_21_281
*1045 FILLER_21_293
*1046 FILLER_21_32
*1047 FILLER_21_52
*1048 FILLER_21_73
*1049 FILLER_21_85
*1050 FILLER_22_112
*1051 FILLER_22_136
*1052 FILLER_22_157
*1053 FILLER_22_161
*1054 FILLER_22_183
*1055 FILLER_22_187
*1056 FILLER_22_191
*1057 FILLER_22_195
*1058 FILLER_22_197
*1059 FILLER_22_21
*1060 FILLER_22_221
*1061 FILLER_22_228
*1062 FILLER_22_235
*1063 FILLER_22_242
*1064 FILLER_22_250
*1065 FILLER_22_260
*1066 FILLER_22_27
*1067 FILLER_22_272
*1068 FILLER_22_284
*1069 FILLER_22_29
*1070 FILLER_22_295
*1071 FILLER_22_3
*1072 FILLER_22_48
*1073 FILLER_22_55
*1074 FILLER_22_75
*1075 FILLER_22_83
*1076 FILLER_22_85
*1077 FILLER_22_91
*1078 FILLER_23_108
*1079 FILLER_23_11
*1080 FILLER_23_116
*1081 FILLER_23_140
*1082 FILLER_23_16
*1083 FILLER_23_164
*1084 FILLER_23_190
*1085 FILLER_23_214
*1086 FILLER_23_222
*1087 FILLER_23_225
*1088 FILLER_23_234
*1089 FILLER_23_246
*1090 FILLER_23_258
*1091 FILLER_23_270
*1092 FILLER_23_278
*1093 FILLER_23_281
*1094 FILLER_23_293
*1095 FILLER_23_3
*1096 FILLER_23_36
*1097 FILLER_23_48
*1098 FILLER_23_57
*1099 FILLER_23_65
*1100 FILLER_23_84
*1101 FILLER_24_104
*1102 FILLER_24_112
*1103 FILLER_24_13
*1104 FILLER_24_136
*1105 FILLER_24_141
*1106 FILLER_24_163
*1107 FILLER_24_188
*1108 FILLER_24_20
*1109 FILLER_24_217
*1110 FILLER_24_230
*1111 FILLER_24_237
*1112 FILLER_24_244
*1113 FILLER_24_253
*1114 FILLER_24_265
*1115 FILLER_24_277
*1116 FILLER_24_289
*1117 FILLER_24_29
*1118 FILLER_24_297
*1119 FILLER_24_34
*1120 FILLER_24_40
*1121 FILLER_24_45
*1122 FILLER_24_58
*1123 FILLER_24_62
*1124 FILLER_24_66
*1125 FILLER_24_77
*1126 FILLER_24_83
*1127 FILLER_24_85
*1128 FILLER_24_93
*1129 FILLER_24_97
*1130 FILLER_25_106
*1131 FILLER_25_11
*1132 FILLER_25_113
*1133 FILLER_25_135
*1134 FILLER_25_164
*1135 FILLER_25_172
*1136 FILLER_25_178
*1137 FILLER_25_19
*1138 FILLER_25_199
*1139 FILLER_25_206
*1140 FILLER_25_213
*1141 FILLER_25_220
*1142 FILLER_25_228
*1143 FILLER_25_23
*1144 FILLER_25_234
*1145 FILLER_25_238
*1146 FILLER_25_250
*1147 FILLER_25_262
*1148 FILLER_25_274
*1149 FILLER_25_281
*1150 FILLER_25_293
*1151 FILLER_25_3
*1152 FILLER_25_32
*1153 FILLER_25_44
*1154 FILLER_25_57
*1155 FILLER_25_69
*1156 FILLER_25_76
*1157 FILLER_25_84
*1158 FILLER_25_88
*1159 FILLER_25_95
*1160 FILLER_26_11
*1161 FILLER_26_110
*1162 FILLER_26_134
*1163 FILLER_26_141
*1164 FILLER_26_164
*1165 FILLER_26_170
*1166 FILLER_26_18
*1167 FILLER_26_192
*1168 FILLER_26_200
*1169 FILLER_26_207
*1170 FILLER_26_214
*1171 FILLER_26_223
*1172 FILLER_26_235
*1173 FILLER_26_247
*1174 FILLER_26_251
*1175 FILLER_26_253
*1176 FILLER_26_26
*1177 FILLER_26_265
*1178 FILLER_26_277
*1179 FILLER_26_289
*1180 FILLER_26_297
*1181 FILLER_26_3
*1182 FILLER_26_38
*1183 FILLER_26_49
*1184 FILLER_26_61
*1185 FILLER_26_73
*1186 FILLER_26_81
*1187 FILLER_26_85
*1188 FILLER_26_91
*1189 FILLER_26_98
*1190 FILLER_27_104
*1191 FILLER_27_113
*1192 FILLER_27_119
*1193 FILLER_27_126
*1194 FILLER_27_13
*1195 FILLER_27_138
*1196 FILLER_27_163
*1197 FILLER_27_167
*1198 FILLER_27_169
*1199 FILLER_27_194
*1200 FILLER_27_201
*1201 FILLER_27_209
*1202 FILLER_27_213
*1203 FILLER_27_221
*1204 FILLER_27_232
*1205 FILLER_27_244
*1206 FILLER_27_25
*1207 FILLER_27_256
*1208 FILLER_27_268
*1209 FILLER_27_281
*1210 FILLER_27_293
*1211 FILLER_27_37
*1212 FILLER_27_49
*1213 FILLER_27_55
*1214 FILLER_27_57
*1215 FILLER_27_65
*1216 FILLER_27_69
*1217 FILLER_27_81
*1218 FILLER_27_93
*1219 FILLER_28_100
*1220 FILLER_28_104
*1221 FILLER_28_116
*1222 FILLER_28_128
*1223 FILLER_28_13
*1224 FILLER_28_132
*1225 FILLER_28_136
*1226 FILLER_28_141
*1227 FILLER_28_167
*1228 FILLER_28_192
*1229 FILLER_28_200
*1230 FILLER_28_208
*1231 FILLER_28_214
*1232 FILLER_28_221
*1233 FILLER_28_233
*1234 FILLER_28_24
*1235 FILLER_28_245
*1236 FILLER_28_251
*1237 FILLER_28_253
*1238 FILLER_28_265
*1239 FILLER_28_277
*1240 FILLER_28_289
*1241 FILLER_28_29
*1242 FILLER_28_297
*1243 FILLER_28_3
*1244 FILLER_28_41
*1245 FILLER_28_53
*1246 FILLER_28_65
*1247 FILLER_28_73
*1248 FILLER_28_79
*1249 FILLER_28_83
*1250 FILLER_28_85
*1251 FILLER_28_89
*1252 FILLER_28_96
*1253 FILLER_29_103
*1254 FILLER_29_111
*1255 FILLER_29_113
*1256 FILLER_29_136
*1257 FILLER_29_15
*1258 FILLER_29_163
*1259 FILLER_29_167
*1260 FILLER_29_172
*1261 FILLER_29_178
*1262 FILLER_29_182
*1263 FILLER_29_186
*1264 FILLER_29_190
*1265 FILLER_29_197
*1266 FILLER_29_212
*1267 FILLER_29_225
*1268 FILLER_29_236
*1269 FILLER_29_243
*1270 FILLER_29_255
*1271 FILLER_29_267
*1272 FILLER_29_27
*1273 FILLER_29_279
*1274 FILLER_29_281