*SPEF "ieee 1481-1999"
*DESIGN "thunderbird_taillight_ctrl"
*DATE "11:11:11 Fri 11 11, 1111"
*VENDOR "OpenRCX"
*PROGRAM "Parallel Extraction"
*VERSION "1.0"
*DESIGN_FLOW "NAME_SCOPE LOCAL" "PIN_CAP NONE"
*DIVIDER /
*DELIMITER :
*BUS_DELIMITER []
*T_UNIT 1 NS
*C_UNIT 1 PF
*R_UNIT 1 OHM
*L_UNIT 1 HENRY

*NAME_MAP
*1 io_in[0]
*2 io_in[1]
*3 io_in[2]
*4 io_in[3]
*5 io_in[4]
*6 io_in[5]
*7 io_in[6]
*8 io_in[7]
*9 io_out[0]
*10 io_out[1]
*11 io_out[2]
*12 io_out[3]
*13 io_out[4]
*14 io_out[5]
*15 net5
*16 net6
*19 _000_
*20 _001_
*21 _002_
*22 _003_
*23 _004_
*24 _005_
*25 _006_
*26 _007_
*27 _008_
*28 _009_
*29 _010_
*30 _011_
*31 _012_
*32 _013_
*33 _014_
*34 _015_
*35 _016_
*36 _017_
*37 _018_
*38 _019_
*39 _020_
*40 _021_
*41 _022_
*42 _023_
*43 _024_
*44 _025_
*45 _026_
*46 _027_
*47 _028_
*48 _029_
*49 _030_
*50 _031_
*51 _032_
*52 _033_
*53 _034_
*54 _035_
*55 _036_
*56 _037_
*57 _038_
*58 _039_
*59 _040_
*60 _041_
*61 _042_
*62 _043_
*63 _044_
*64 _045_
*65 _046_
*66 _047_
*67 _048_
*68 _049_
*69 _050_
*70 _051_
*71 _052_
*72 _053_
*73 _054_
*74 _055_
*75 _056_
*76 _057_
*77 _058_
*78 _059_
*79 _060_
*80 _061_
*81 _062_
*82 _063_
*83 _064_
*84 _065_
*85 _066_
*86 _067_
*87 _068_
*88 _069_
*89 _070_
*90 _071_
*91 _072_
*92 _073_
*93 _074_
*94 _075_
*95 _076_
*96 _077_
*97 clknet_0_io_in[0]
*98 clknet_1_0__leaf_io_in[0]
*99 clknet_1_1__leaf_io_in[0]
*100 divider_i\.cnt\[0\]
*101 divider_i\.cnt\[1\]
*102 divider_i\.cnt\[2\]
*103 divider_i\.cnt\[3\]
*104 divider_i\.cnt\[4\]
*105 divider_i\.cnt\[5\]
*106 divider_i\.cnt\[6\]
*107 divider_i\.cnt\[7\]
*108 divider_i\.cnt\[8\]
*109 divider_i\.cnt\[9\]
*110 net1
*111 net2
*112 net3
*113 net4
*114 FILLER_0_109
*115 FILLER_0_113
*116 FILLER_0_125
*117 FILLER_0_137
*118 FILLER_0_141
*119 FILLER_0_153
*120 FILLER_0_165
*121 FILLER_0_169
*122 FILLER_0_181
*123 FILLER_0_193
*124 FILLER_0_197
*125 FILLER_0_209
*126 FILLER_0_221
*127 FILLER_0_225
*128 FILLER_0_237
*129 FILLER_0_24
*130 FILLER_0_249
*131 FILLER_0_253
*132 FILLER_0_265
*133 FILLER_0_277
*134 FILLER_0_281
*135 FILLER_0_293
*136 FILLER_0_3
*137 FILLER_0_45
*138 FILLER_0_53
*139 FILLER_0_57
*140 FILLER_0_69
*141 FILLER_0_81
*142 FILLER_0_85
*143 FILLER_0_97
*144 FILLER_10_109
*145 FILLER_10_121
*146 FILLER_10_133
*147 FILLER_10_139
*148 FILLER_10_141
*149 FILLER_10_153
*150 FILLER_10_165
*151 FILLER_10_177
*152 FILLER_10_189
*153 FILLER_10_195
*154 FILLER_10_197
*155 FILLER_10_20
*156 FILLER_10_209
*157 FILLER_10_221
*158 FILLER_10_233
*159 FILLER_10_245
*160 FILLER_10_251
*161 FILLER_10_253
*162 FILLER_10_265
*163 FILLER_10_277
*164 FILLER_10_289
*165 FILLER_10_29
*166 FILLER_10_297
*167 FILLER_10_41
*168 FILLER_10_53
*169 FILLER_10_61
*170 FILLER_10_70
*171 FILLER_10_82
*172 FILLER_10_85
*173 FILLER_10_97
*174 FILLER_11_109
*175 FILLER_11_113
*176 FILLER_11_125
*177 FILLER_11_137
*178 FILLER_11_149
*179 FILLER_11_161
*180 FILLER_11_167
*181 FILLER_11_169
*182 FILLER_11_181
*183 FILLER_11_193
*184 FILLER_11_205
*185 FILLER_11_217
*186 FILLER_11_223
*187 FILLER_11_225
*188 FILLER_11_237
*189 FILLER_11_249
*190 FILLER_11_261
*191 FILLER_11_273
*192 FILLER_11_279
*193 FILLER_11_281
*194 FILLER_11_293
*195 FILLER_11_3
*196 FILLER_11_31
*197 FILLER_11_39
*198 FILLER_11_47
*199 FILLER_11_55
*200 FILLER_11_61
*201 FILLER_11_73
*202 FILLER_11_85
*203 FILLER_11_97
*204 FILLER_12_109
*205 FILLER_12_121
*206 FILLER_12_133
*207 FILLER_12_139
*208 FILLER_12_141
*209 FILLER_12_153
*210 FILLER_12_165
*211 FILLER_12_177
*212 FILLER_12_18
*213 FILLER_12_189
*214 FILLER_12_195
*215 FILLER_12_197
*216 FILLER_12_209
*217 FILLER_12_221
*218 FILLER_12_233
*219 FILLER_12_245
*220 FILLER_12_251
*221 FILLER_12_253
*222 FILLER_12_26
*223 FILLER_12_265
*224 FILLER_12_277
*225 FILLER_12_289
*226 FILLER_12_29
*227 FILLER_12_297
*228 FILLER_12_41
*229 FILLER_12_50
*230 FILLER_12_6
*231 FILLER_12_62
*232 FILLER_12_75
*233 FILLER_12_83
*234 FILLER_12_85
*235 FILLER_12_97
*236 FILLER_13_105
*237 FILLER_13_111
*238 FILLER_13_113
*239 FILLER_13_125
*240 FILLER_13_137
*241 FILLER_13_149
*242 FILLER_13_15
*243 FILLER_13_161
*244 FILLER_13_167
*245 FILLER_13_169
*246 FILLER_13_181
*247 FILLER_13_193
*248 FILLER_13_205
*249 FILLER_13_21
*250 FILLER_13_217
*251 FILLER_13_223
*252 FILLER_13_225
*253 FILLER_13_237
*254 FILLER_13_249
*255 FILLER_13_261
*256 FILLER_13_273
*257 FILLER_13_279
*258 FILLER_13_281
*259 FILLER_13_29
*260 FILLER_13_293
*261 FILLER_13_3
*262 FILLER_13_35
*263 FILLER_13_45
*264 FILLER_13_52
*265 FILLER_13_57
*266 FILLER_13_69
*267 FILLER_13_81
*268 FILLER_13_93
*269 FILLER_14_101
*270 FILLER_14_108
*271 FILLER_14_120
*272 FILLER_14_132
*273 FILLER_14_141
*274 FILLER_14_15
*275 FILLER_14_153
*276 FILLER_14_165
*277 FILLER_14_177
*278 FILLER_14_189
*279 FILLER_14_195
*280 FILLER_14_197
*281 FILLER_14_209
*282 FILLER_14_221
*283 FILLER_14_233
*284 FILLER_14_245
*285 FILLER_14_251
*286 FILLER_14_253
*287 FILLER_14_265
*288 FILLER_14_27
*289 FILLER_14_277
*290 FILLER_14_289
*291 FILLER_14_29
*292 FILLER_14_297
*293 FILLER_14_3
*294 FILLER_14_33
*295 FILLER_14_44
*296 FILLER_14_56
*297 FILLER_14_64
*298 FILLER_14_71
*299 FILLER_14_83
*300 FILLER_14_85
*301 FILLER_14_89
*302 FILLER_15_105
*303 FILLER_15_11
*304 FILLER_15_111
*305 FILLER_15_113
*306 FILLER_15_125
*307 FILLER_15_137
*308 FILLER_15_149
*309 FILLER_15_161
*310 FILLER_15_167
*311 FILLER_15_169
*312 FILLER_15_18
*313 FILLER_15_181
*314 FILLER_15_193
*315 FILLER_15_205
*316 FILLER_15_217
*317 FILLER_15_223
*318 FILLER_15_225
*319 FILLER_15_237
*320 FILLER_15_249
*321 FILLER_15_261
*322 FILLER_15_273
*323 FILLER_15_279
*324 FILLER_15_281
*325 FILLER_15_293
*326 FILLER_15_3
*327 FILLER_15_30
*328 FILLER_15_38
*329 FILLER_15_43
*330 FILLER_15_55
*331 FILLER_15_57
*332 FILLER_15_69
*333 FILLER_15_81
*334 FILLER_15_93
*335 FILLER_16_101
*336 FILLER_16_113
*337 FILLER_16_125
*338 FILLER_16_137
*339 FILLER_16_141
*340 FILLER_16_153
*341 FILLER_16_165
*342 FILLER_16_177
*343 FILLER_16_18
*344 FILLER_16_189
*345 FILLER_16_195
*346 FILLER_16_197
*347 FILLER_16_209
*348 FILLER_16_221
*349 FILLER_16_233
*350 FILLER_16_245
*351 FILLER_16_251
*352 FILLER_16_253
*353 FILLER_16_26
*354 FILLER_16_265
*355 FILLER_16_277
*356 FILLER_16_289
*357 FILLER_16_29
*358 FILLER_16_297
*359 FILLER_16_35
*360 FILLER_16_39
*361 FILLER_16_51
*362 FILLER_16_56
*363 FILLER_16_6
*364 FILLER_16_65
*365 FILLER_16_77
*366 FILLER_16_83
*367 FILLER_16_89
*368 FILLER_17_105
*369 FILLER_17_111
*370 FILLER_17_113
*371 FILLER_17_125
*372 FILLER_17_137
*373 FILLER_17_149
*374 FILLER_17_15
*375 FILLER_17_161
*376 FILLER_17_167
*377 FILLER_17_169
*378 FILLER_17_181
*379 FILLER_17_193
*380 FILLER_17_205
*381 FILLER_17_217
*382 FILLER_17_223
*383 FILLER_17_225
*384 FILLER_17_237
*385 FILLER_17_249
*386 FILLER_17_261
*387 FILLER_17_27
*388 FILLER_17_273
*389 FILLER_17_279
*390 FILLER_17_281
*391 FILLER_17_293
*392 FILLER_17_3
*393 FILLER_17_35
*394 FILLER_17_43
*395 FILLER_17_51
*396 FILLER_17_55
*397 FILLER_17_57
*398 FILLER_17_69
*399 FILLER_17_81
*400 FILLER_17_93
*401 FILLER_18_104
*402 FILLER_18_116
*403 FILLER_18_128
*404 FILLER_18_141
*405 FILLER_18_15
*406 FILLER_18_153
*407 FILLER_18_165
*408 FILLER_18_177
*409 FILLER_18_189
*410 FILLER_18_195
*411 FILLER_18_197
*412 FILLER_18_209
*413 FILLER_18_221
*414 FILLER_18_233
*415 FILLER_18_245
*416 FILLER_18_251
*417 FILLER_18_253
*418 FILLER_18_265
*419 FILLER_18_27
*420 FILLER_18_277
*421 FILLER_18_289
*422 FILLER_18_29
*423 FILLER_18_297
*424 FILLER_18_3
*425 FILLER_18_36
*426 FILLER_18_46
*427 FILLER_18_58
*428 FILLER_18_62
*429 FILLER_18_67
*430 FILLER_18_79
*431 FILLER_18_83
*432 FILLER_18_92
*433 FILLER_19_10
*434 FILLER_19_105
*435 FILLER_19_111
*436 FILLER_19_113
*437 FILLER_19_125
*438 FILLER_19_137
*439 FILLER_19_149
*440 FILLER_19_161
*441 FILLER_19_167
*442 FILLER_19_169
*443 FILLER_19_17
*444 FILLER_19_181
*445 FILLER_19_193
*446 FILLER_19_205
*447 FILLER_19_217
*448 FILLER_19_223
*449 FILLER_19_225
*450 FILLER_19_237
*451 FILLER_19_249
*452 FILLER_19_261
*453 FILLER_19_273
*454 FILLER_19_279
*455 FILLER_19_281
*456 FILLER_19_29
*457 FILLER_19_293
*458 FILLER_19_3
*459 FILLER_19_37
*460 FILLER_19_46
*461 FILLER_19_54
*462 FILLER_19_57
*463 FILLER_19_69
*464 FILLER_19_81
*465 FILLER_19_93
*466 FILLER_1_105
*467 FILLER_1_111
*468 FILLER_1_113
*469 FILLER_1_125
*470 FILLER_1_137
*471 FILLER_1_149
*472 FILLER_1_161
*473 FILLER_1_167
*474 FILLER_1_169
*475 FILLER_1_181
*476 FILLER_1_193
*477 FILLER_1_205
*478 FILLER_1_217
*479 FILLER_1_223
*480 FILLER_1_225
*481 FILLER_1_237
*482 FILLER_1_249
*483 FILLER_1_25
*484 FILLER_1_261
*485 FILLER_1_273
*486 FILLER_1_279
*487 FILLER_1_281
*488 FILLER_1_293
*489 FILLER_1_3
*490 FILLER_1_45
*491 FILLER_1_53
*492 FILLER_1_57
*493 FILLER_1_69
*494 FILLER_1_81
*495 FILLER_1_93
*496 FILLER_20_109
*497 FILLER_20_11
*498 FILLER_20_121
*499 FILLER_20_133
*500 FILLER_20_139
*501 FILLER_20_141
*502 FILLER_20_15
*503 FILLER_20_153
*504 FILLER_20_165
*505 FILLER_20_177
*506 FILLER_20_189
*507 FILLER_20_195
*508 FILLER_20_197
*509 FILLER_20_209
*510 FILLER_20_221
*511 FILLER_20_233
*512 FILLER_20_245
*513 FILLER_20_251
*514 FILLER_20_253
*515 FILLER_20_265
*516 FILLER_20_27
*517 FILLER_20_277
*518 FILLER_20_289
*519 FILLER_20_29
*520 FILLER_20_297
*521 FILLER_20_3
*522 FILLER_20_35
*523 FILLER_20_47
*524 FILLER_20_59
*525 FILLER_20_65
*526 FILLER_20_72
*527 FILLER_20_85
*528 FILLER_20_97
*529 FILLER_21_105
*530 FILLER_21_111
*531 FILLER_21_113
*532 FILLER_21_125
*533 FILLER_21_137
*534 FILLER_21_149
*535 FILLER_21_161
*536 FILLER_21_167
*537 FILLER_21_169
*538 FILLER_21_181
*539 FILLER_21_193
*540 FILLER_21_205
*541 FILLER_21_21
*542 FILLER_21_217
*543 FILLER_21_223
*544 FILLER_21_225
*545 FILLER_21_237
*546 FILLER_21_249
*547 FILLER_21_261
*548 FILLER_21_273
*549 FILLER_21_279
*550 FILLER_21_281
*551 FILLER_21_293
*552 FILLER_21_3
*553 FILLER_21_33
*554 FILLER_21_39
*555 FILLER_21_47
*556 FILLER_21_55
*557 FILLER_21_57
*558 FILLER_21_63
*559 FILLER_21_69
*560 FILLER_21_81
*561 FILLER_21_93
*562 FILLER_22_109
*563 FILLER_22_12
*564 FILLER_22_121
*565 FILLER_22_133
*566 FILLER_22_139
*567 FILLER_22_141
*568 FILLER_22_153
*569 FILLER_22_165
*570 FILLER_22_177
*571 FILLER_22_189
*572 FILLER_22_195
*573 FILLER_22_197
*574 FILLER_22_209
*575 FILLER_22_22
*576 FILLER_22_221
*577 FILLER_22_233
*578 FILLER_22_245
*579 FILLER_22_251
*580 FILLER_22_253
*581 FILLER_22_265
*582 FILLER_22_277
*583 FILLER_22_289
*584 FILLER_22_29
*585 FILLER_22_297
*586 FILLER_22_3
*587 FILLER_22_45
*588 FILLER_22_59
*589 FILLER_22_69
*590 FILLER_22_81
*591 FILLER_22_85
*592 FILLER_22_97
*593 FILLER_23_105
*594 FILLER_23_111
*595 FILLER_23_113
*596 FILLER_23_12
*597 FILLER_23_125
*598 FILLER_23_137
*599 FILLER_23_149
*600 FILLER_23_161
*601 FILLER_23_167
*602 FILLER_23_169
*603 FILLER_23_181
*604 FILLER_23_193
*605 FILLER_23_205
*606 FILLER_23_217
*607 FILLER_23_223
*608 FILLER_23_225
*609 FILLER_23_237
*610 FILLER_23_24
*611 FILLER_23_249
*612 FILLER_23_261
*613 FILLER_23_273
*614 FILLER_23_279
*615 FILLER_23_281
*616 FILLER_23_293
*617 FILLER_23_3
*618 FILLER_23_36
*619 FILLER_23_43
*620 FILLER_23_55
*621 FILLER_23_57
*622 FILLER_23_69
*623 FILLER_23_81
*624 FILLER_23_93
*625 FILLER_24_109
*626 FILLER_24_121
*627 FILLER_24_133
*628 FILLER_24_139
*629 FILLER_24_141
*630 FILLER_24_153
*631 FILLER_24_165
*632 FILLER_24_177
*633 FILLER_24_189
*634 FILLER_24_195
*635 FILLER_24_197
*636 FILLER_24_209
*637 FILLER_24_221
*638 FILLER_24_23
*639 FILLER_24_233
*640 FILLER_24_245
*641 FILLER_24_251
*642 FILLER_24_253
*643 FILLER_24_265
*644 FILLER_24_27
*645 FILLER_24_277
*646 FILLER_24_289
*647 FILLER_24_29
*648 FILLER_24_297
*649 FILLER_24_3
*650 FILLER_24_41
*651 FILLER_24_51
*652 FILLER_24_63
*653 FILLER_24_75
*654 FILLER_24_83
*655 FILLER_24_85
*656 FILLER_24_9
*657 FILLER_24_97
*658 FILLER_25_105
*659 FILLER_25_111
*660 FILLER_25_113
*661 FILLER_25_125
*662 FILLER_25_13
*663 FILLER_25_137
*664 FILLER_25_149
*665 FILLER_25_161
*666 FILLER_25_167
*667 FILLER_25_169
*668 FILLER_25_181
*669 FILLER_25_193
*670 FILLER_25_205
*671 FILLER_25_217
*672 FILLER_25_223
*673 FILLER_25_225
*674 FILLER_25_237
*675 FILLER_25_249
*676 FILLER_25_26
*677 FILLER_25_261
*678 FILLER_25_273
*679 FILLER_25_279
*680 FILLER_25_281
*681 FILLER_25_293
*682 FILLER_25_3
*683 FILLER_25_38
*684 FILLER_25_50
*685 FILLER_25_57
*686 FILLER_25_69
*687 FILLER_25_81
*688 FILLER_25_93
*689 FILLER_26_109
*690 FILLER_26_12
*691 FILLER_26_121
*692 FILLER_26_133
*693 FILLER_26_139
*694 FILLER_26_141
*695 FILLER_26_153
*696 FILLER_26_165
*697 FILLER_26_177
*698 FILLER_26_189
*699 FILLER_26_195
*700 FILLER_26_197
*701 FILLER_26_209
*702 FILLER_26_221
*703 FILLER_26_233
*704 FILLER_26_24
*705 FILLER_26_245
*706 FILLER_26_251
*707 FILLER_26_253
*708 FILLER_26_265
*709 FILLER_26_277
*710 FILLER_26_289
*711 FILLER_26_29
*712 FILLER_26_297
*713 FILLER_26_41
*714 FILLER_26_53
*715 FILLER_26_65
*716 FILLER_26_77
*717 FILLER_26_83
*718 FILLER_26_85
*719 FILLER_26_97
*720 FILLER_27_105
*721 FILLER_27_111
*722 FILLER_27_113
*723 FILLER_27_125
*724 FILLER_27_137
*725 FILLER_27_149
*726 FILLER_27_161
*727 FILLER_27_167
*728 FILLER_27_169
*729 FILLER_27_181
*730 FILLER_27_193
*731 FILLER_27_205
*732 FILLER_27_217
*733 FILLER_27_22
*734 FILLER_27_223
*735 FILLER_27_225
*736 FILLER_27_237
*737 FILLER_27_249
*738 FILLER_27_261
*739 FILLER_27_273
*740 FILLER_27_279
*741 FILLER_27_28
*742 FILLER_27_281
*743 FILLER_27_293
*744 FILLER_27_3
*745 FILLER_27_36
*746 FILLER_27_48
*747 FILLER_27_57
*748 FILLER_27_69
*749 FILLER_27_81
*750 FILLER_27_9
*751 FILLER_27_93
*752 FILLER_28_109
*753 FILLER_28_11
*754 FILLER_28_121
*755 FILLER_28_133
*756 FILLER_28_139
*757 FILLER_28_141
*758 FILLER_28_153
*759 FILLER_28_165
*760 FILLER_28_177
*761 FILLER_28_189
*762 FILLER_28_195
*763 FILLER_28_197
*764 FILLER_28_20
*765 FILLER_28_209
*766 FILLER_28_221
*767 FILLER_28_233
*768 FILLER_28_245
*769 FILLER_28_251
*770 FILLER_28_253
*771 FILLER_28_265
*772 FILLER_28_277
*773 FILLER_28_289
*774 FILLER_28_29
*775 FILLER_28_297
*776 FILLER_28_3
*777 FILLER_28_41
*778 FILLER_28_53
*779 FILLER_28_65
*780 FILLER_28_77
*781 FILLER_28_83
*782 FILLER_28_85
*783 FILLER_28_97
*784 FILLER_29_105
*785 FILLER_29_111
*786 FILLER_29_113
*787 FILLER_29_12
*788 FILLER_29_125
*789 FILLER_29_137
*790 FILLER_29_149
*791 FILLER_29_161
*792 FILLER_29_167
*793 FILLER_29_169
*794 FILLER_29_181
*795 FILLER_29_193
*796 FILLER_29_205
*797 FILLER_29_217
*798 FILLER_29_223
*799 FILLER_29_225
*800 FILLER_29_237
*801 FILLER_29_249
*802 FILLER_29_26
*803 FILLER_29_261
*804 FILLER_29_273
*805 FILLER_29_279
*806 FILLER_29_281
*807 FILLER_29_293
*808 FILLER_29_34
*809 FILLER_29_42
*810 FILLER_29_54
*811 FILLER_29_57
*812 FILLER_29_69
*813 FILLER_29_81
*814 FILLER_29_93
*815 FILLER_2_109
*816 FILLER_2_121
*817 FILLER_2_133
*818 FILLER_2_139
*819 FILLER_2_141
*820 FILLER_2_153
*821 FILLER_2_165
*822 FILLER_2_177
*823 FILLER_2_189
*824 FILLER_2_195
*825 FILLER_2_197
*826 FILLER_2_209
*827 FILLER_2_221
*828 FILLER_2_233
*829 FILLER_2_24
*830 FILLER_2_245
*831 FILLER_2_251
*832 FILLER_2_253
*833 FILLER_2_265
*834 FILLER_2_277
*835 FILLER_2_289
*836 FILLER_2_297
*837 FILLER_2_3
*838 FILLER_2_45
*839 FILLER_2_56
*840 FILLER_2_68
*841 FILLER_2_80
*842 FILLER_2_85
*843 FILLER_2_97
*844 FILLER_30_109
*845 FILLER_30_121
*846 FILLER_30_133
*847 FILLER_30_139
*848 FILLER_30_141
*849 FILLER_30_15
*850 FILLER_30_153
*851 FILLER_30_165
*852 FILLER_30_177
*853 FILLER_30_189
*854 FILLER_30_195
*855 FILLER_30_197
*856 FILLER_30_209
*857 FILLER_30_221
*858 FILLER_30_233
*859 FILLER_30_245
*860 FILLER_30_251
*861 FILLER_30_253
*862 FILLER_30_265
*863 FILLER_30_27
*864 FILLER_30_277
*865 FILLER_30_289
*866 FILLER_30_29
*867 FILLER_30_297
*868 FILLER_30_3
*869 FILLER_30_41
*870 FILLER_30_53
*871 FILLER_30_65
*872 FILLER_30_77
*873 FILLER_30_83
*874 FILLER_30_85
*875 FILLER_30_97
*876 FILLER_31_105
*877 FILLER_31_111
*878 FILLER_31_113
*879 FILLER_31_12
*880 FILLER_31_125
*881 FILLER_31_137
*882 FILLER_31_149
*883 FILLER_31_161
*884 FILLER_31_167
*885 FILLER_31_169
*886 FILLER_31_181
*887 FILLER_31_193
*888 FILLER_31_205
*889 FILLER_31_217
*890 FILLER_31_223
*891 FILLER_31_225
*892 FILLER_31_237
*893 FILLER_31_24
*894 FILLER_31_249
*895 FILLER_31_261
*896 FILLER_31_273
*897 FILLER_31_279
*898 FILLER_31_281
*899 FILLER_31_293
*900 FILLER_31_44
*901 FILLER_31_57
*902 FILLER_31_69
*903 FILLER_31_81
*904 FILLER_31_93
*905 FILLER_32_109
*906 FILLER_32_12
*907 FILLER_32_121
*908 FILLER_32_133
*909 FILLER_32_139
*910 FILLER_32_141
*911 FILLER_32_153
*912 FILLER_32_165
*913 FILLER_32_177
*914 FILLER_32_189
*915 FILLER_32_195
*916 FILLER_32_197
*917 FILLER_32_209
*918 FILLER_32_221
*919 FILLER_32_233
*920 FILLER_32_24
*921 FILLER_32_245
*922 FILLER_32_251
*923 FILLER_32_253
*924 FILLER_32_265
*925 FILLER_32_277
*926 FILLER_32_289
*927 FILLER_32_297
*928 FILLER_32_3
*929 FILLER_32_39
*930 FILLER_32_51
*931 FILLER_32_63
*932 FILLER_32_75
*933 FILLER_32_83
*934 FILLER_32_85
*935 FILLER_32_97
*936 FILLER_33_105
*937 FILLER_33_111
*938 FILLER_33_113
*939 FILLER_33_12
*940 FILLER_33_125
*941 FILLER_33_137
*942 FILLER_33_149
*943 FILLER_33_16
*944 FILLER_33_161
*945 FILLER_33_167
*946 FILLER_33_169
*947 FILLER_33_181
*948 FILLER_33_193
*949 FILLER_33_20
*950 FILLER_33_205
*951 FILLER_33_217
*952 FILLER_33_223
*953 FILLER_33_225
*954 FILLER_33_237
*955 FILLER_33_249
*956 FILLER_33_261
*957 FILLER_33_27
*958 FILLER_33_273
*959 FILLER_33_279
*960 FILLER_33_281
*961 FILLER_33_293
*962 FILLER_33_39
*963 FILLER_33_51
*964 FILLER_33_55
*965 FILLER_33_57
*966 FILLER_33_69
*967 FILLER_33_81
*968 FILLER_33_93
*969 FILLER_34_109
*970 FILLER_34_121
*971 FILLER_34_13
*972 FILLER_34_133
*973 FILLER_34_139
*974 FILLER_34_141
*975 FILLER_34_153
*976 FILLER_34_165
*977 FILLER_34_177
*978 FILLER_34_189
*979 FILLER_34_195
*980 FILLER_34_197
*981 FILLER_34_209
*982 FILLER_34_221
*983 FILLER_34_233
*984 FILLER_34_245
*985 FILLER_34_25
*986 FILLER_34_251
*987 FILLER_34_253
*988 FILLER_34_265
*989 FILLER_34_277
*990 FILLER_34_289
*991 FILLER_34_29
*992 FILLER_34_297
*993 FILLER_34_3
*994 FILLER_34_41
*995 FILLER_34_53
*996 FILLER_34_65
*997 FILLER_34_77
*998 FILLER_34_83
*999 FILLER_34_85
*1000 FILLER_34_9
*1001 FILLER_34_97
*1002 FILLER_35_105
*1003 FILLER_35_11
*1004 FILLER_35_111
*1005 FILLER_35_113
*1006 FILLER_35_125
*1007 FILLER_35_137
*1008 FILLER_35_149
*1009 FILLER_35_161
*1010 FILLER_35_167
*1011 FILLER_35_169
*1012 FILLER_35_181
*1013 FILLER_35_193
*1014 FILLER_35_20
*1015 FILLER_35_205
*1016 FILLER_35_217
*1017 FILLER_35_223
*1018 FILLER_35_225
*1019 FILLER_35_237
*1020 FILLER_35_249
*1021 FILLER_35_261
*1022 FILLER_35_273
*1023 FILLER_35_279
*1024 FILLER_35_281
*1025 FILLER_35_293
*1026 FILLER_35_3
*1027 FILLER_35_32
*1028 FILLER_35_44
*1029 FILLER_35_57
*1030 FILLER_35_69
*1031 FILLER_35_81
*1032 FILLER_35_93
*1033 FILLER_36_109
*1034 FILLER_36_121
*1035 FILLER_36_133
*1036 FILLER_36_139
*1037 FILLER_36_141
*1038 FILLER_36_153
*1039 FILLER_36_165
*1040 FILLER_36_177
*1041 FILLER_36_189
*1042 FILLER_36_195
*1043 FILLER_36_197
*1044 FILLER_36_209
*1045 FILLER_36_221
*1046 FILLER_36_233
*1047 FILLER_36_24
*1048 FILLER_36_245
*1049 FILLER_36_251
*1050 FILLER_36_253
*1051 FILLER_36_265
*1052 FILLER_36_277
*1053 FILLER_36_289
*1054 FILLER_36_297
*1055 FILLER_36_3
*1056 FILLER_36_45
*1057 FILLER_36_57
*1058 FILLER_36_69
*1059 FILLER_36_8
*1060 FILLER_36_81
*1061 FILLER_36_85
*1062 FILLER_36_97
*1063 FILLER_37_105
*1064 FILLER_37_111
*1065 FILLER_37_113
*1066 FILLER_37_125
*1067 FILLER_37_137
*1068 FILLER_37_14
*1069 FILLER_37_149
*1070 FILLER_37_161
*1071 FILLER_37_167
*1072 FILLER_37_169
*1073 FILLER_37_181
*1074 FILLER_37_193
*1075 FILLER_37_205
*1076 FILLER_37_217
*1077 FILLER_37_223
*1078 FILLER_37_225
*1079 FILLER_37_237
*1080 FILLER_37_249
*1081 FILLER_37_26
*1082 FILLER_37_261
*1083 FILLER_37_273
*1084 FILLER_37_279
*1085 FILLER_37_281
*1086 FILLER_37_293
*1087 FILLER_37_3
*1088 FILLER_37_38
*1089 FILLER_37_50
*1090 FILLER_37_57
*1091 FILLER_37_69
*1092 FILLER_37_81
*1093 FILLER_37_9
*1094 FILLER_37_93
*1095 FILLER_38_101
*1096 FILLER_38_113
*1097 FILLER_38_125
*1098 FILLER_38_13
*1099 FILLER_38_137
*1100 FILLER_38_141
*1101 FILLER_38_153
*1102 FILLER_38_165
*1103 FILLER_38_177
*1104 FILLER_38_189
*1105 FILLER_38_195
*1106 FILLER_38_197
*1107 FILLER_38_209
*1108 FILLER_38_221
*1109 FILLER_38_233
*1110 FILLER_38_245
*1111 FILLER_38_25
*1112 FILLER_38_251
*1113 FILLER_38_253
*1114 FILLER_38_265
*1115 FILLER_38_277
*1116 FILLER_38_289
*1117 FILLER_38_29
*1118 FILLER_38_297
*1119 FILLER_38_3
*1120 FILLER_38_41
*1121 FILLER_38_53
*1122 FILLER_38_65
*1123 FILLER_38_77
*1124 FILLER_38_83
*1125 FILLER_38_85
*1126 FILLER_38_89
*1127 FILLER_39_105
*1128 FILLER_39_111
*1129 FILLER_39_113
*1130 FILLER_39_125
*1131 FILLER_39_137
*1132 FILLER_39_149
*1133 FILLER_39_15
*1134 FILLER_39_161
*1135 FILLER_39_167
*1136 FILLER_39_169
*1137 FILLER_39_181
*1138 FILLER_39_193
*1139 FILLER_39_205
*1140 FILLER_39_217
*1141 FILLER_39_223
*1142 FILLER_39_225
*1143 FILLER_39_237
*1144 FILLER_39_249
*1145 FILLER_39_261
*1146 FILLER_39_27
*1147 FILLER_39_273
*1148 FILLER_39_279
*1149 FILLER_39_281
*1150 FILLER_39_293
*1151 FILLER_39_3
*1152 FILLER_39_39
*1153 FILLER_39_51
*1154 FILLER_39_55
*1155 FILLER_39_57
*1156 FILLER_39_69
*1157 FILLER_39_81
*1158 FILLER_39_93
*1159 FILLER_3_108
*1160 FILLER_3_113
*1161 FILLER_3_125
*1162 FILLER_3_137
*1163 FILLER_3_149
*1164 FILLER_3_161
*1165 FILLER_3_167
*1166 FILLER_3_169
*1167 FILLER_3_181
*1168 FILLER_3_193
*1169 FILLER_3_205
*1170 FILLER_3_217
*1171 FILLER_3_223
*1172 FILLER_3_225
*1173 FILLER_3_237
*1174 FILLER_3_249
*1175 FILLER_3_25
*1176 FILLER_3_261
*1177 FILLER_3_273
*1178 FILLER_3_279
*1179 FILLER_3_281
*1180 FILLER_3_293
*1181 FILLER_3_3
*1182 FILLER_3_45
*1183 FILLER_3_53
*1184 FILLER_3_60
*1185 FILLER_3_72
*1186 FILLER_3_84
*1187 FILLER_3_96
*1188 FILLER_40_105
*1189 FILLER_40_117
*1190 FILLER_40_12
*1191 FILLER_40_129
*1192 FILLER_40_137
*1193 FILLER_40_141
*1194 FILLER_40_153
*1195 FILLER_40_165
*1196 FILLER_40_177
*1197 FILLER_40_189
*1198 FILLER_40_195
*1199 FILLER_40_197
*1200 FILLER_40_209
*1201 FILLER_40_221
*1202 FILLER_40_233
*1203 FILLER_40_24
*1204 FILLER_40_245
*1205 FILLER_40_251
*1206 FILLER_40_253
*1207 FILLER_40_265
*1208 FILLER_40_277
*1209 FILLER_40_289
*1210 FILLER_40_29
*1211 FILLER_40_297
*1212 FILLER_40_3
*1213 FILLER_40_41
*1214 FILLER_40_53
*1215 FILLER_40_65
*1216 FILLER_40_7
*1217 FILLER_40_77
*1218 FILLER_40_83
*1219 FILLER_40_85
*1220 FILLER_40_93
*1221 FILLER_41_105
*1222 FILLER_41_111
*1223 FILLER_41_113
*1224 FILLER_41_125
*1225 FILLER_41_137
*1226 FILLER_41_149
*1227 FILLER_41_15
*1228 FILLER_41_161
*1229 FILLER_41_167
*1230 FILLER_41_169
*1231 FILLER_41_181
*1232 FILLER_41_193
*1233 FILLER_41_205
*1234 FILLER_41_217
*1235 FILLER_41_223
*1236 FILLER_41_225
*1237 FILLER_41_237
*1238 FILLER_41_249
*1239 FILLER_41_261
*1240 FILLER_41_27
*1241 FILLER_41_273
*1242 FILLER_41_279
*1243 FILLER_41_281
*1244 FILLER_41_293
*1245 FILLER_41_3
*1246 FILLER_41_39
*1247 FILLER_41_51
*1248 FILLER_41_55
*1249 FILLER_41_57
*1250 FILLER_41_69
*1251 FILLER_41_81
*1252 FILLER_41_93
*1253 FILLER_42_109
*1254 FILLER_42_121
*1255 FILLER_42_133
*1256 FILLER_42_139
*1257 FILLER_42_141
*1258 FILLER_42_15
*1259 FILLER_42_153
*1260 FILLER_42_165
*1261 FILLER_42_177
*1262 FILLER_42_189
*1263 FILLER_42_195
*1264 FILLER_42_197
*1265 FILLER_42_209
*1266 FILLER_42_221
*1267 FILLER_42_233
*1268 FILLER_42_245
*1269 FILLER_42_251
*1270 FILLER_42_253
*1271 FILLER_42_265
*1272 FILLER_42_27
*1273 FILLER_42_277
*1274 FILLER_42_289
*1275 FILLER_42_29
*1276 FILLER_42_297
*1277 FILLER_42_3
*1278 FILLER_42_41
*1279 FILLER_42_53
*1280 FILLER_42_65
*1281 FILLER_42_77
*1282 FILLER_42_83
*1283 FILLER_42_85
*1284 FILLER_42_97
*1285 FILLER_43_105
*1286 FILLER_43_111
*1287 FILLER_43_113
*1288 FILLER_43_125
*1289 FILLER_43_137
*1290 FILLER_43_149
*1291 FILLER_43_15
*1292 FILLER_43_161
*1293 FILLER_43_167
*1294 FILLER_43_169
*1295 FILLER_43_181
*1296 FILLER_43_193
*1297 FILLER_43_205
*1298 FILLER_43_217
*1299 FILLER_43_223
*1300 FILLER_43_225
*1301 FILLER_43_237
*1302 FILLER_43_249
*1303 FILLER_43_261
*1304 FILLER_43_27
*1305 FILLER_43_273
*1306 FILLER_43_279
*1307 FILLER_43_281
*1308 FILLER_43_293
*1309 FILLER_43_3
*1310 FILLER_43_39
*1311 FILLER_43_51
*1312 FILLER_43_55
*1313 FILLER_43_57
*1314 FILLER_43_69
*1315 FILLER_43_81
*1316 FILLER_43_93
*1317 FILLER_44_109
*1318 FILLER_44_121
*1319 FILLER_44_133
*1320 FILLER_44_139
*1321 FILLER_44_141
*1322 FILLER_44_15
*1323 FILLER_44_153
*1324 FILLER_44_165
*1325 FILLER_44_177
*1326 FILLER_44_189
*1327 FILLER_44_195
*1328 FILLER_44_197
*1329 FILLER_44_209
*1330 FILLER_44_221
*1331 FILLER_44_233
*1332 FILLER_44_245
*1333 FILLER_44_251
*1334 FILLER_44_253
*1335 FILLER_44_265
*1336 FILLER_44_27
*1337 FILLER_44_277
*1338 FILLER_44_289
*1339 FILLER_44_29
*1340 FILLER_44_297
*1341 FILLER_44_3
*1342 FILLER_44_41
*1343 FILLER_44_53
*1344 FILLER_44_65
*1345 FILLER_44_77
*1346 FILLER_44_83
*1347 FILLER_44_85
*1348 FILLER_44_97
*1349 FILLER_45_105
*1350 FILLER_45_111
*1351 FILLER_45_113
*1352 FILLER_45_125
*1353 FILLER_45_137
*1354 FILLER_45_149
*1355 FILLER_45_15
*1356 FILLER_45_161
*1357 FILLER_45_167
*1358 FILLER_45_169
*1359 FILLER_45_181
*1360 FILLER_45_193
*1361 FILLER_45_205
*1362 FILLER_45_217
*1363 FILLER_45_223
*1364 FILLER_45_225
*1365 FILLER_45_237
*1366 FILLER_45_249
*1367 FILLER_45_261
*1368 FILLER_45_27
*1369 FILLER_45_273
*1370 FILLER_45_279
*1371 FILLER_45_281
*1372 FILLER_45_293
*1373 FILLER_45_3
*1374 FILLER_45_39
*1375 FILLER_45_51
*1376 FILLER_45_55
*1377 FILLER_45_57
*1378 FILLER_45_69
*1379 FILLER_45_81
*1380 FILLER_45_93
*1381 FILLER_46_109
*1382 FILLER_46_121
*1383 FILLER_46_133
*1384 FILLER_46_139
*1385 FILLER_46_141
*1386 FILLER_46_15
*1387 FILLER_46_153
*1388 FILLER_46_165
*1389 FILLER_46_177
*1390 FILLER_46_189
*1391 FILLER_46_195
*1392 FILLER_46_197
*1393 FILLER_46_209
*1394 FILLER_46_221
*1395 FILLER_46_233
*1396 FILLER_46_245
*1397 FILLER_46_251
*1398 FILLER_46_253
*1399 FILLER_46_265
*1400 FILLER_46_27
*1401 FILLER_46_277
*1402 FILLER_46_289
*1403 FILLER_46_29
*1404 FILLER_46_297
*1405 FILLER_46_3
*1406 FILLER_46_41
*1407 FILLER_46_53
*1408 FILLER_46_65
*1409 FILLER_46_77
*1410 FILLER_46_83
*1411 FILLER_46_85
*1412 FILLER_46_97
*1413 FILLER_47_105
*1414 FILLER_47_111
*1415 FILLER_47_113
*1416 FILLER_47_125
*1417 FILLER_47_137
*1418 FILLER_47_149
*1419 FILLER_47_15
*1420 FILLER_47_161
*1421 FILLER_47_167
*1422 FILLER_47_169
*1423 FILLER_47_181
*1424 FILLER_47_193
*1425 FILLER_47_205
*1426 FILLER_47_217
*1427 FILLER_47_223
*1428 FILLER_47_225
*1429 FILLER_47_237
*1430 FILLER_47_249
*1431 FILLER_47_261
*1432 FILLER_47_27
*1433 FILLER_47_273
*1434 FILLER_47_279
*1435 FILLER_47_281
*1436 FILLER_47_293
*1437 FILLER_47_3
*1438 FILLER_47_39
*1439 FILLER_47_51
*1440 FILLER_47_55
*1441 FILLER_47_57
*1442 FILLER_47_69
*1443 FILLER_47_81
*1444 FILLER_47_93
*1445 FILLER_48_109
*1446 FILLER_48_121
*1447 FILLER_48_133
*1448 FILLER_48_139
*1449 FILLER_48_141
*1450 FILLER_48_15
*1451 FILLER_48_153
*1452 FILLER_48_165
*1453 FILLER_48_177
*1454 FILLER_48_189
*1455 FILLER_48_195
*1456 FILLER_48_197
*1457 FILLER_48_209
*1458 FILLER_48_221
*1459 FILLER_48_233
*1460 FILLER_48_245
*1461 FILLER_48_251
*1462 FILLER_48_253
*1463 FILLER_48_265
*1464 FILLER_48_27
*1465 FILLER_48_277
*1466 FILLER_48_289
*1467 FILLER_48_29
*1468 FILLER_48_297
*1469 FILLER_48_3
*1470 FILLER_48_41
*1471 FILLER_48_53
*1472 FILLER_48_65
*1473 FILLER_48_77
*1474 FILLER_48_83
*1475 FILLER_48_85
*1476 FILLER_48_97
*1477 FILLER_49_105
*1478 FILLER_49_111
*1479 FILLER_49_113
*1480 FILLER_49_125
*1481 FILLER_49_137
*1482 FILLER_49_149
*1483 FILLER_49_15
*1484 FILLER_49_161
*1485 FILLER_49_167
*1486 FILLER_49_169
*1487 FILLER_49_181
*1488 FILLER_49_193
*1489 FILLER_49_205
*1490 FILLER_49_217
*1491 FILLER_49_223
*1492 FILLER_49_225
*1493 FILLER_49_237
*1494 FILLER_49_249
*1495 FILLER_49_261
*1496 FILLER_49_27
*1497 FILLER_49_273
*1498 FILLER_49_279
*1499 FILLER_49_281
*1500 FILLER_49_293
*1501 FILLER_49_3
*1502 FILLER_49_39
*1503 FILLER_49_51
*1504 FILLER_49_55
*1505 FILLER_49_57
*1506 FILLER_49_69
*1507 FILLER_49_81
*1508 FILLER_49_93
*1509 FILLER_4_109
*1510 FILLER_4_121
*1511 FILLER_4_133
*1512 FILLER_4_139
*1513 FILLER_4_141
*1514 FILLER_4_153
*1515 FILLER_4_165
*1516 FILLER_4_177
*1517 FILLER_4_189
*1518 FILLER_4_195
*1519 FILLER_4_197
*1520 FILLER_4_209
*1521 FILLER_4_22
*1522 FILLER_4_221
*1523 FILLER_4_233
*1524 FILLER_4_245
*1525 FILLER_4_251
*1526 FILLER_4_253
*1527 FILLER_4_265
*1528 FILLER_4_277
*1529 FILLER_4_289
*1530 FILLER_4_29
*1531 FILLER_4_297
*1532 FILLER_4_53
*1533 FILLER_4_65
*1534 FILLER_4_77
*1535 FILLER_4_83
*1536 FILLER_4_85
*1537 FILLER_4_97
*1538 FILLER_50_109
*1539 FILLER_50_121
*1540 FILLER_50_133
*1541 FILLER_50_139
*1542 FILLER_50_141
*1543 FILLER_50_15
*1544 FILLER_50_153
*1545 FILLER_50_165
*1546 FILLER_50_177
*1547 FILLER_50_189
*1548 FILLER_50_195
*1549 FILLER_50_197
*1550 FILLER_50_209
*1551 FILLER_50_221
*1552 FILLER_50_233
*1553 FILLER_50_245
*1554 FILLER_50_251
*1555 FILLER_50_253
*1556 FILLER_50_265
*1557 FILLER_50_27
*1558 FILLER_50_277
*1559 FILLER_50_289
*1560 FILLER_50_29
*1561 FILLER_50_297
*1562 FILLER_50_3
*1563 FILLER_50_41
*1564 FILLER_50_53
*1565 FILLER_50_65
*1566 FILLER_50_77
*1567 FILLER_50_83
*1568 FILLER_50_85
*1569 FILLER_50_97
*1570 FILLER_51_105
*1571 FILLER_51_111
*1572 FILLER_51_113
*1573 FILLER_51_125
*1574 FILLER_51_137
*1575 FILLER_51_149
*1576 FILLER_51_15
*1577 FILLER_51_161
*1578 FILLER_51_167
*1579 FILLER_51_169
*1580 FILLER_51_181
*1581 FILLER_51_193
*1582 FILLER_51_205
*1583 FILLER_51_217
*1584 FILLER_51_223
*1585 FILLER_51_225
*1586 FILLER_51_237
*1587 FILLER_51_249
*1588 FILLER_51_261
*1589 FILLER_51_27
*1590 FILLER_51_273
*1591 FILLER_51_279
*1592 FILLER_51_281
*1593 FILLER_51_293
*1594 FILLER_51_3
*1595 FILLER_51_39
*1596 FILLER_51_51
*1597 FILLER_51_55
*1598 FILLER_51_57
*1599 FILLER_51_69
*1600 FILLER_51_81
*1601 FILLER_51_93
*1602 FILLER_52_109
*1603 FILLER_52_121
*1604 FILLER_52_133
*1605 FILLER_52_139
*1606 FILLER_52_141
*1607 FILLER_52_15
*1608 FILLER_52_153