*SPEF "ieee 1481-1999"
*DESIGN "tiny_fft"
*DATE "11:11:11 Fri 11 11, 1111"
*VENDOR "OpenRCX"
*PROGRAM "Parallel Extraction"
*VERSION "1.0"
*DESIGN_FLOW "NAME_SCOPE LOCAL" "PIN_CAP NONE"
*DIVIDER /
*DELIMITER :
*BUS_DELIMITER []
*T_UNIT 1 NS
*C_UNIT 1 PF
*R_UNIT 1 OHM
*L_UNIT 1 HENRY

*NAME_MAP
*1 io_in[0]
*2 io_in[1]
*3 io_in[2]
*4 io_in[3]
*5 io_in[4]
*6 io_in[5]
*7 io_in[6]
*8 io_in[7]
*9 io_out[0]
*10 io_out[1]
*11 io_out[2]
*12 io_out[3]
*13 io_out[4]
*14 io_out[5]
*15 io_out[6]
*16 io_out[7]
*19 _000_
*20 _001_
*21 _002_
*22 _003_
*23 _004_
*24 _005_
*25 _006_
*26 _007_
*27 _008_
*28 _009_
*29 _010_
*30 _011_
*31 _012_
*32 _013_
*33 _014_
*34 _015_
*35 _016_
*36 _017_
*37 _018_
*38 _019_
*39 _020_
*40 _021_
*41 _022_
*42 _023_
*43 _024_
*44 _025_
*45 _026_
*46 _027_
*47 _028_
*48 _029_
*49 _030_
*50 _031_
*51 _032_
*52 _033_
*53 _034_
*54 _035_
*55 _036_
*56 _037_
*57 _038_
*58 _039_
*59 _040_
*60 _041_
*61 _042_
*62 _043_
*63 _044_
*64 _045_
*65 _046_
*66 _047_
*67 _048_
*68 _049_
*69 _050_
*70 _051_
*71 _052_
*72 _053_
*73 _054_
*74 _055_
*75 _056_
*76 _057_
*77 _058_
*78 _059_
*79 _060_
*80 _061_
*81 _062_
*82 _063_
*83 _064_
*84 _065_
*85 _066_
*86 _067_
*87 _068_
*88 _069_
*89 _070_
*90 _071_
*91 _072_
*92 _073_
*93 _074_
*94 _075_
*95 _076_
*96 _077_
*97 _078_
*98 _079_
*99 _080_
*100 _081_
*101 _082_
*102 _083_
*103 _084_
*104 _085_
*105 _086_
*106 _087_
*107 _088_
*108 _089_
*109 _090_
*110 _091_
*111 _092_
*112 _093_
*113 _094_
*114 _095_
*115 _096_
*116 _097_
*117 _098_
*118 _099_
*119 _100_
*120 _101_
*121 _102_
*122 _103_
*123 _104_
*124 _105_
*125 _106_
*126 _107_
*127 _108_
*128 _109_
*129 _110_
*130 _111_
*131 _112_
*132 _113_
*133 _114_
*134 _115_
*135 _116_
*136 _117_
*137 _118_
*138 _119_
*139 _120_
*140 _121_
*141 _122_
*142 _123_
*143 _124_
*144 _125_
*145 _126_
*146 _127_
*147 _128_
*148 _129_
*149 _130_
*150 _131_
*151 _132_
*152 _133_
*153 _134_
*154 _135_
*155 _136_
*156 _137_
*157 _138_
*158 _139_
*159 _140_
*160 _141_
*161 _142_
*162 _143_
*163 _144_
*164 _145_
*165 _146_
*166 _147_
*167 _148_
*168 _149_
*169 _150_
*170 _151_
*171 _152_
*172 _153_
*173 _154_
*174 _155_
*175 _156_
*176 _157_
*177 _158_
*178 _159_
*179 _160_
*180 _161_
*181 _162_
*182 _163_
*183 _164_
*184 _165_
*185 _166_
*186 _167_
*187 _168_
*188 _169_
*189 _170_
*190 _171_
*191 _172_
*192 _173_
*193 _174_
*194 _175_
*195 _176_
*196 _177_
*197 clknet_0_io_in[0]
*198 clknet_1_0__leaf_io_in[0]
*199 clknet_1_1__leaf_io_in[0]
*200 input_reg\[0\]\[0\]
*201 input_reg\[0\]\[1\]
*202 input_reg\[0\]\[2\]
*203 input_reg\[0\]\[3\]
*204 input_reg\[1\]\[0\]
*205 input_reg\[1\]\[1\]
*206 input_reg\[1\]\[2\]
*207 input_reg\[1\]\[3\]
*208 input_reg\[2\]\[0\]
*209 input_reg\[2\]\[1\]
*210 input_reg\[2\]\[2\]
*211 input_reg\[2\]\[3\]
*212 input_reg\[3\]\[0\]
*213 input_reg\[3\]\[1\]
*214 input_reg\[3\]\[2\]
*215 input_reg\[3\]\[3\]
*216 net1
*217 net2
*218 net3
*219 net4
*220 net5
*221 net6
*222 rdIdx\[0\]
*223 rdIdx\[1\]
*224 rdIdx\[2\]
*225 wrIdx\[0\]
*226 wrIdx\[1\]
*227 ANTENNA_0
*228 ANTENNA_1
*229 ANTENNA_2
*230 FILLER_0_109
*231 FILLER_0_113
*232 FILLER_0_119
*233 FILLER_0_131
*234 FILLER_0_139
*235 FILLER_0_141
*236 FILLER_0_153
*237 FILLER_0_165
*238 FILLER_0_169
*239 FILLER_0_181
*240 FILLER_0_193
*241 FILLER_0_200
*242 FILLER_0_212
*243 FILLER_0_225
*244 FILLER_0_23
*245 FILLER_0_237
*246 FILLER_0_249
*247 FILLER_0_253
*248 FILLER_0_265
*249 FILLER_0_27
*250 FILLER_0_277
*251 FILLER_0_281
*252 FILLER_0_293
*253 FILLER_0_3
*254 FILLER_0_46
*255 FILLER_0_54
*256 FILLER_0_57
*257 FILLER_0_72
*258 FILLER_0_85
*259 FILLER_0_97
*260 FILLER_10_109
*261 FILLER_10_121
*262 FILLER_10_133
*263 FILLER_10_139
*264 FILLER_10_141
*265 FILLER_10_15
*266 FILLER_10_153
*267 FILLER_10_165
*268 FILLER_10_171
*269 FILLER_10_183
*270 FILLER_10_195
*271 FILLER_10_197
*272 FILLER_10_209
*273 FILLER_10_221
*274 FILLER_10_233
*275 FILLER_10_245
*276 FILLER_10_251
*277 FILLER_10_253
*278 FILLER_10_265
*279 FILLER_10_27
*280 FILLER_10_277
*281 FILLER_10_289
*282 FILLER_10_297
*283 FILLER_10_3
*284 FILLER_10_46
*285 FILLER_10_65
*286 FILLER_10_77
*287 FILLER_10_83
*288 FILLER_10_85
*289 FILLER_10_97
*290 FILLER_11_103
*291 FILLER_11_111
*292 FILLER_11_113
*293 FILLER_11_124
*294 FILLER_11_136
*295 FILLER_11_144
*296 FILLER_11_153
*297 FILLER_11_165
*298 FILLER_11_169
*299 FILLER_11_181
*300 FILLER_11_193
*301 FILLER_11_20
*302 FILLER_11_205
*303 FILLER_11_217
*304 FILLER_11_223
*305 FILLER_11_225
*306 FILLER_11_24
*307 FILLER_11_251
*308 FILLER_11_263
*309 FILLER_11_275
*310 FILLER_11_279
*311 FILLER_11_281
*312 FILLER_11_293
*313 FILLER_11_44
*314 FILLER_11_57
*315 FILLER_11_69
*316 FILLER_11_81
*317 FILLER_11_91
*318 FILLER_12_106
*319 FILLER_12_118
*320 FILLER_12_130
*321 FILLER_12_138
*322 FILLER_12_153
*323 FILLER_12_165
*324 FILLER_12_177
*325 FILLER_12_189
*326 FILLER_12_195
*327 FILLER_12_197
*328 FILLER_12_209
*329 FILLER_12_22
*330 FILLER_12_221
*331 FILLER_12_233
*332 FILLER_12_245
*333 FILLER_12_251
*334 FILLER_12_253
*335 FILLER_12_265
*336 FILLER_12_277
*337 FILLER_12_289
*338 FILLER_12_29
*339 FILLER_12_297
*340 FILLER_12_48
*341 FILLER_12_60
*342 FILLER_12_72
*343 FILLER_12_94
*344 FILLER_13_105
*345 FILLER_13_111
*346 FILLER_13_116
*347 FILLER_13_124
*348 FILLER_13_131
*349 FILLER_13_143
*350 FILLER_13_15
*351 FILLER_13_155
*352 FILLER_13_167
*353 FILLER_13_169
*354 FILLER_13_181
*355 FILLER_13_193
*356 FILLER_13_205
*357 FILLER_13_217
*358 FILLER_13_223
*359 FILLER_13_225
*360 FILLER_13_237
*361 FILLER_13_249
*362 FILLER_13_261
*363 FILLER_13_27
*364 FILLER_13_273
*365 FILLER_13_279
*366 FILLER_13_281
*367 FILLER_13_293
*368 FILLER_13_3
*369 FILLER_13_46
*370 FILLER_13_54
*371 FILLER_13_70
*372 FILLER_13_82
*373 FILLER_13_94
*374 FILLER_14_109
*375 FILLER_14_121
*376 FILLER_14_125
*377 FILLER_14_137
*378 FILLER_14_141
*379 FILLER_14_149
*380 FILLER_14_15
*381 FILLER_14_161
*382 FILLER_14_173
*383 FILLER_14_185
*384 FILLER_14_193
*385 FILLER_14_197
*386 FILLER_14_205
*387 FILLER_14_217
*388 FILLER_14_229
*389 FILLER_14_241
*390 FILLER_14_249
*391 FILLER_14_253
*392 FILLER_14_265
*393 FILLER_14_27
*394 FILLER_14_277
*395 FILLER_14_289
*396 FILLER_14_297
*397 FILLER_14_3
*398 FILLER_14_35
*399 FILLER_14_47
*400 FILLER_14_59
*401 FILLER_14_71
*402 FILLER_14_83
*403 FILLER_14_85
*404 FILLER_14_97
*405 FILLER_15_102
*406 FILLER_15_110
*407 FILLER_15_113
*408 FILLER_15_125
*409 FILLER_15_137
*410 FILLER_15_149
*411 FILLER_15_15
*412 FILLER_15_161
*413 FILLER_15_167
*414 FILLER_15_182
*415 FILLER_15_194
*416 FILLER_15_207
*417 FILLER_15_219
*418 FILLER_15_22
*419 FILLER_15_223
*420 FILLER_15_225
*421 FILLER_15_237
*422 FILLER_15_249
*423 FILLER_15_261
*424 FILLER_15_273
*425 FILLER_15_279
*426 FILLER_15_281
*427 FILLER_15_293
*428 FILLER_15_3
*429 FILLER_15_34
*430 FILLER_15_46
*431 FILLER_15_54
*432 FILLER_15_57
*433 FILLER_15_69
*434 FILLER_15_90
*435 FILLER_16_109
*436 FILLER_16_11
*437 FILLER_16_121
*438 FILLER_16_133
*439 FILLER_16_139
*440 FILLER_16_141
*441 FILLER_16_149
*442 FILLER_16_158
*443 FILLER_16_170
*444 FILLER_16_182
*445 FILLER_16_194
*446 FILLER_16_197
*447 FILLER_16_209
*448 FILLER_16_221
*449 FILLER_16_23
*450 FILLER_16_233
*451 FILLER_16_245
*452 FILLER_16_251
*453 FILLER_16_253
*454 FILLER_16_266
*455 FILLER_16_27
*456 FILLER_16_278
*457 FILLER_16_29
*458 FILLER_16_290
*459 FILLER_16_298
*460 FILLER_16_3
*461 FILLER_16_37
*462 FILLER_16_49
*463 FILLER_16_61
*464 FILLER_16_73
*465 FILLER_16_81
*466 FILLER_16_85
*467 FILLER_16_97
*468 FILLER_17_101
*469 FILLER_17_109
*470 FILLER_17_113
*471 FILLER_17_125
*472 FILLER_17_137
*473 FILLER_17_145
*474 FILLER_17_15
*475 FILLER_17_150
*476 FILLER_17_162
*477 FILLER_17_169
*478 FILLER_17_181
*479 FILLER_17_193
*480 FILLER_17_205
*481 FILLER_17_217
*482 FILLER_17_223
*483 FILLER_17_225
*484 FILLER_17_237
*485 FILLER_17_249
*486 FILLER_17_261
*487 FILLER_17_27
*488 FILLER_17_273
*489 FILLER_17_279
*490 FILLER_17_281
*491 FILLER_17_293
*492 FILLER_17_3
*493 FILLER_17_39
*494 FILLER_17_51
*495 FILLER_17_55
*496 FILLER_17_66
*497 FILLER_17_78
*498 FILLER_17_84
*499 FILLER_17_89
*500 FILLER_18_107
*501 FILLER_18_119
*502 FILLER_18_131
*503 FILLER_18_139
*504 FILLER_18_141
*505 FILLER_18_145
*506 FILLER_18_151
*507 FILLER_18_157
*508 FILLER_18_166
*509 FILLER_18_178
*510 FILLER_18_190
*511 FILLER_18_197
*512 FILLER_18_209
*513 FILLER_18_21
*514 FILLER_18_221
*515 FILLER_18_233
*516 FILLER_18_245
*517 FILLER_18_251
*518 FILLER_18_253
*519 FILLER_18_265
*520 FILLER_18_27
*521 FILLER_18_277
*522 FILLER_18_289
*523 FILLER_18_297
*524 FILLER_18_3
*525 FILLER_18_33
*526 FILLER_18_39
*527 FILLER_18_44
*528 FILLER_18_56
*529 FILLER_18_68
*530 FILLER_18_8
*531 FILLER_18_80
*532 FILLER_18_85
*533 FILLER_18_95
*534 FILLER_19_100
*535 FILLER_19_113
*536 FILLER_19_125
*537 FILLER_19_137
*538 FILLER_19_149
*539 FILLER_19_15
*540 FILLER_19_161
*541 FILLER_19_167
*542 FILLER_19_169
*543 FILLER_19_181
*544 FILLER_19_193
*545 FILLER_19_205
*546 FILLER_19_217
*547 FILLER_19_223
*548 FILLER_19_225
*549 FILLER_19_237
*550 FILLER_19_249
*551 FILLER_19_261
*552 FILLER_19_27
*553 FILLER_19_273
*554 FILLER_19_279
*555 FILLER_19_281
*556 FILLER_19_293
*557 FILLER_19_3
*558 FILLER_19_36
*559 FILLER_19_48
*560 FILLER_19_57
*561 FILLER_19_69
*562 FILLER_19_81
*563 FILLER_19_93
*564 FILLER_1_104
*565 FILLER_1_113
*566 FILLER_1_120
*567 FILLER_1_130
*568 FILLER_1_142
*569 FILLER_1_146
*570 FILLER_1_15
*571 FILLER_1_152
*572 FILLER_1_164
*573 FILLER_1_169
*574 FILLER_1_181
*575 FILLER_1_185
*576 FILLER_1_189
*577 FILLER_1_197
*578 FILLER_1_204
*579 FILLER_1_216
*580 FILLER_1_225
*581 FILLER_1_237
*582 FILLER_1_249
*583 FILLER_1_261
*584 FILLER_1_273
*585 FILLER_1_279
*586 FILLER_1_281
*587 FILLER_1_289
*588 FILLER_1_295
*589 FILLER_1_3
*590 FILLER_1_36
*591 FILLER_1_48
*592 FILLER_1_73
*593 FILLER_1_77
*594 FILLER_1_89
*595 FILLER_20_109
*596 FILLER_20_11
*597 FILLER_20_121
*598 FILLER_20_133
*599 FILLER_20_139
*600 FILLER_20_141
*601 FILLER_20_153
*602 FILLER_20_165
*603 FILLER_20_177
*604 FILLER_20_189
*605 FILLER_20_195
*606 FILLER_20_197
*607 FILLER_20_209
*608 FILLER_20_221
*609 FILLER_20_23
*610 FILLER_20_233
*611 FILLER_20_245
*612 FILLER_20_251
*613 FILLER_20_253
*614 FILLER_20_265
*615 FILLER_20_27
*616 FILLER_20_277
*617 FILLER_20_289
*618 FILLER_20_29
*619 FILLER_20_297
*620 FILLER_20_3
*621 FILLER_20_41
*622 FILLER_20_53
*623 FILLER_20_65
*624 FILLER_20_77
*625 FILLER_20_83
*626 FILLER_20_85
*627 FILLER_20_97
*628 FILLER_21_105
*629 FILLER_21_11
*630 FILLER_21_111
*631 FILLER_21_113
*632 FILLER_21_125
*633 FILLER_21_137
*634 FILLER_21_149
*635 FILLER_21_160
*636 FILLER_21_169
*637 FILLER_21_177
*638 FILLER_21_18
*639 FILLER_21_189
*640 FILLER_21_201
*641 FILLER_21_213
*642 FILLER_21_221
*643 FILLER_21_225
*644 FILLER_21_237
*645 FILLER_21_249
*646 FILLER_21_261
*647 FILLER_21_273
*648 FILLER_21_279
*649 FILLER_21_28
*650 FILLER_21_281
*651 FILLER_21_293
*652 FILLER_21_3
*653 FILLER_21_32
*654 FILLER_21_36
*655 FILLER_21_48
*656 FILLER_21_57
*657 FILLER_21_69
*658 FILLER_21_81
*659 FILLER_21_93
*660 FILLER_22_10
*661 FILLER_22_101
*662 FILLER_22_107
*663 FILLER_22_111
*664 FILLER_22_119
*665 FILLER_22_126
*666 FILLER_22_138
*667 FILLER_22_141
*668 FILLER_22_153
*669 FILLER_22_165
*670 FILLER_22_177
*671 FILLER_22_189
*672 FILLER_22_195
*673 FILLER_22_197
*674 FILLER_22_209
*675 FILLER_22_22
*676 FILLER_22_221
*677 FILLER_22_233
*678 FILLER_22_245
*679 FILLER_22_251
*680 FILLER_22_253
*681 FILLER_22_265
*682 FILLER_22_277
*683 FILLER_22_289
*684 FILLER_22_29
*685 FILLER_22_297
*686 FILLER_22_41
*687 FILLER_22_53
*688 FILLER_22_65
*689 FILLER_22_77
*690 FILLER_22_83
*691 FILLER_22_89
*692 FILLER_23_105
*693 FILLER_23_111
*694 FILLER_23_113
*695 FILLER_23_125
*696 FILLER_23_137
*697 FILLER_23_149
*698 FILLER_23_15
*699 FILLER_23_161
*700 FILLER_23_167
*701 FILLER_23_169
*702 FILLER_23_181
*703 FILLER_23_193
*704 FILLER_23_205
*705 FILLER_23_217
*706 FILLER_23_223
*707 FILLER_23_225
*708 FILLER_23_237
*709 FILLER_23_249
*710 FILLER_23_261
*711 FILLER_23_27
*712 FILLER_23_273
*713 FILLER_23_279
*714 FILLER_23_281
*715 FILLER_23_293
*716 FILLER_23_3
*717 FILLER_23_39
*718 FILLER_23_51
*719 FILLER_23_55
*720 FILLER_23_57
*721 FILLER_23_69
*722 FILLER_23_81
*723 FILLER_23_93
*724 FILLER_24_109
*725 FILLER_24_11
*726 FILLER_24_121
*727 FILLER_24_133
*728 FILLER_24_139
*729 FILLER_24_141
*730 FILLER_24_153
*731 FILLER_24_165
*732 FILLER_24_177
*733 FILLER_24_189
*734 FILLER_24_195
*735 FILLER_24_197
*736 FILLER_24_209
*737 FILLER_24_221
*738 FILLER_24_23
*739 FILLER_24_233
*740 FILLER_24_245
*741 FILLER_24_251
*742 FILLER_24_253
*743 FILLER_24_265
*744 FILLER_24_27
*745 FILLER_24_277
*746 FILLER_24_289
*747 FILLER_24_29
*748 FILLER_24_297
*749 FILLER_24_3
*750 FILLER_24_36
*751 FILLER_24_44
*752 FILLER_24_56
*753 FILLER_24_68
*754 FILLER_24_80
*755 FILLER_24_85
*756 FILLER_24_97
*757 FILLER_25_105
*758 FILLER_25_111
*759 FILLER_25_113
*760 FILLER_25_125
*761 FILLER_25_137
*762 FILLER_25_150
*763 FILLER_25_162
*764 FILLER_25_169
*765 FILLER_25_185
*766 FILLER_25_19
*767 FILLER_25_197
*768 FILLER_25_209
*769 FILLER_25_221
*770 FILLER_25_225
*771 FILLER_25_237
*772 FILLER_25_249
*773 FILLER_25_261
*774 FILLER_25_273
*775 FILLER_25_279
*776 FILLER_25_281
*777 FILLER_25_293
*778 FILLER_25_3
*779 FILLER_25_31
*780 FILLER_25_39
*781 FILLER_25_45
*782 FILLER_25_53
*783 FILLER_25_57
*784 FILLER_25_69
*785 FILLER_25_7
*786 FILLER_25_81
*787 FILLER_25_93
*788 FILLER_26_100
*789 FILLER_26_104
*790 FILLER_26_116
*791 FILLER_26_128
*792 FILLER_26_141
*793 FILLER_26_156
*794 FILLER_26_168
*795 FILLER_26_180
*796 FILLER_26_192
*797 FILLER_26_197
*798 FILLER_26_209
*799 FILLER_26_221
*800 FILLER_26_233
*801 FILLER_26_24
*802 FILLER_26_245
*803 FILLER_26_251
*804 FILLER_26_253
*805 FILLER_26_265
*806 FILLER_26_277
*807 FILLER_26_289
*808 FILLER_26_29
*809 FILLER_26_297
*810 FILLER_26_44
*811 FILLER_26_56
*812 FILLER_26_68
*813 FILLER_26_7
*814 FILLER_26_74
*815 FILLER_26_78
*816 FILLER_26_96
*817 FILLER_27_103
*818 FILLER_27_111
*819 FILLER_27_113
*820 FILLER_27_125
*821 FILLER_27_137
*822 FILLER_27_149
*823 FILLER_27_161
*824 FILLER_27_167
*825 FILLER_27_169
*826 FILLER_27_181
*827 FILLER_27_193
*828 FILLER_27_205
*829 FILLER_27_21
*830 FILLER_27_217
*831 FILLER_27_223
*832 FILLER_27_225
*833 FILLER_27_237
*834 FILLER_27_249
*835 FILLER_27_261
*836 FILLER_27_273
*837 FILLER_27_279
*838 FILLER_27_281
*839 FILLER_27_293
*840 FILLER_27_3
*841 FILLER_27_33
*842 FILLER_27_45
*843 FILLER_27_53
*844 FILLER_27_57
*845 FILLER_27_66
*846 FILLER_27_7
*847 FILLER_27_78
*848 FILLER_27_91
*849 FILLER_28_109
*850 FILLER_28_121
*851 FILLER_28_13
*852 FILLER_28_132
*853 FILLER_28_141
*854 FILLER_28_153
*855 FILLER_28_165
*856 FILLER_28_177
*857 FILLER_28_189
*858 FILLER_28_195
*859 FILLER_28_197
*860 FILLER_28_209
*861 FILLER_28_221
*862 FILLER_28_233
*863 FILLER_28_245
*864 FILLER_28_25
*865 FILLER_28_251
*866 FILLER_28_253
*867 FILLER_28_265
*868 FILLER_28_277
*869 FILLER_28_289
*870 FILLER_28_297
*871 FILLER_28_3
*872 FILLER_28_37
*873 FILLER_28_50
*874 FILLER_28_62
*875 FILLER_28_7
*876 FILLER_28_74
*877 FILLER_28_82
*878 FILLER_28_85
*879 FILLER_28_97
*880 FILLER_29_110
*881 FILLER_29_113
*882 FILLER_29_125
*883 FILLER_29_137
*884 FILLER_29_149
*885 FILLER_29_15
*886 FILLER_29_161
*887 FILLER_29_167
*888 FILLER_29_169
*889 FILLER_29_181
*890 FILLER_29_193
*891 FILLER_29_205
*892 FILLER_29_217
*893 FILLER_29_223
*894 FILLER_29_225
*895 FILLER_29_237
*896 FILLER_29_249
*897 FILLER_29_261
*898 FILLER_29_27
*899 FILLER_29_273
*900 FILLER_29_279
*901 FILLER_29_281
*902 FILLER_29_293
*903 FILLER_29_3
*904 FILLER_29_39
*905 FILLER_29_51
*906 FILLER_29_55
*907 FILLER_29_57
*908 FILLER_29_69
*909 FILLER_29_86
*910 FILLER_29_98
*911 FILLER_2_116
*912 FILLER_2_128
*913 FILLER_2_141
*914 FILLER_2_15
*915 FILLER_2_175
*916 FILLER_2_187
*917 FILLER_2_195
*918 FILLER_2_197
*919 FILLER_2_209
*920 FILLER_2_221
*921 FILLER_2_233
*922 FILLER_2_245
*923 FILLER_2_251
*924 FILLER_2_253
*925 FILLER_2_265
*926 FILLER_2_27
*927 FILLER_2_277
*928 FILLER_2_289
*929 FILLER_2_29
*930 FILLER_2_297
*931 FILLER_2_3
*932 FILLER_2_35
*933 FILLER_2_53
*934 FILLER_2_73
*935 FILLER_2_81
*936 FILLER_2_85
*937 FILLER_2_93
*938 FILLER_30_10
*939 FILLER_30_109
*940 FILLER_30_121
*941 FILLER_30_136
*942 FILLER_30_141
*943 FILLER_30_153
*944 FILLER_30_165
*945 FILLER_30_177
*946 FILLER_30_189
*947 FILLER_30_195
*948 FILLER_30_197
*949 FILLER_30_209
*950 FILLER_30_22
*951 FILLER_30_221
*952 FILLER_30_233
*953 FILLER_30_245
*954 FILLER_30_251
*955 FILLER_30_253
*956 FILLER_30_265
*957 FILLER_30_277
*958 FILLER_30_289
*959 FILLER_30_297
*960 FILLER_30_3
*961 FILLER_30_51
*962 FILLER_30_59
*963 FILLER_30_69
*964 FILLER_30_81
*965 FILLER_30_85
*966 FILLER_30_97
*967 FILLER_31_105
*968 FILLER_31_111
*969 FILLER_31_113
*970 FILLER_31_125
*971 FILLER_31_137
*972 FILLER_31_149
*973 FILLER_31_15
*974 FILLER_31_161
*975 FILLER_31_167
*976 FILLER_31_169
*977 FILLER_31_181
*978 FILLER_31_193
*979 FILLER_31_205
*980 FILLER_31_217
*981 FILLER_31_223
*982 FILLER_31_225
*983 FILLER_31_237
*984 FILLER_31_249
*985 FILLER_31_261
*986 FILLER_31_27
*987 FILLER_31_273
*988 FILLER_31_279
*989 FILLER_31_281
*990 FILLER_31_293
*991 FILLER_31_3
*992 FILLER_31_39
*993 FILLER_31_45
*994 FILLER_31_49
*995 FILLER_31_55
*996 FILLER_31_57
*997 FILLER_31_69
*998 FILLER_31_81
*999 FILLER_31_93
*1000 FILLER_32_110
*1001 FILLER_32_122
*1002 FILLER_32_13
*1003 FILLER_32_134
*1004 FILLER_32_141
*1005 FILLER_32_153
*1006 FILLER_32_165
*1007 FILLER_32_177
*1008 FILLER_32_189
*1009 FILLER_32_195
*1010 FILLER_32_197
*1011 FILLER_32_205
*1012 FILLER_32_220
*1013 FILLER_32_237
*1014 FILLER_32_249
*1015 FILLER_32_25
*1016 FILLER_32_253
*1017 FILLER_32_265
*1018 FILLER_32_277
*1019 FILLER_32_289
*1020 FILLER_32_29
*1021 FILLER_32_297
*1022 FILLER_32_3
*1023 FILLER_32_41
*1024 FILLER_32_56
*1025 FILLER_32_64
*1026 FILLER_32_76
*1027 FILLER_32_85
*1028 FILLER_32_91
*1029 FILLER_32_98
*1030 FILLER_33_105
*1031 FILLER_33_111
*1032 FILLER_33_113
*1033 FILLER_33_125
*1034 FILLER_33_137
*1035 FILLER_33_149
*1036 FILLER_33_15
*1037 FILLER_33_161
*1038 FILLER_33_167
*1039 FILLER_33_169
*1040 FILLER_33_181
*1041 FILLER_33_193
*1042 FILLER_33_205
*1043 FILLER_33_217
*1044 FILLER_33_223
*1045 FILLER_33_225
*1046 FILLER_33_237
*1047 FILLER_33_249
*1048 FILLER_33_261
*1049 FILLER_33_27
*1050 FILLER_33_273
*1051 FILLER_33_279
*1052 FILLER_33_281
*1053 FILLER_33_293
*1054 FILLER_33_3
*1055 FILLER_33_39
*1056 FILLER_33_51
*1057 FILLER_33_55
*1058 FILLER_33_57
*1059 FILLER_33_69
*1060 FILLER_33_81
*1061 FILLER_33_93
*1062 FILLER_34_109
*1063 FILLER_34_121
*1064 FILLER_34_133
*1065 FILLER_34_139
*1066 FILLER_34_141
*1067 FILLER_34_15
*1068 FILLER_34_153
*1069 FILLER_34_165
*1070 FILLER_34_177
*1071 FILLER_34_189
*1072 FILLER_34_195
*1073 FILLER_34_197
*1074 FILLER_34_209
*1075 FILLER_34_221
*1076 FILLER_34_233
*1077 FILLER_34_245
*1078 FILLER_34_251
*1079 FILLER_34_253
*1080 FILLER_34_265
*1081 FILLER_34_27
*1082 FILLER_34_277
*1083 FILLER_34_289
*1084 FILLER_34_29
*1085 FILLER_34_297
*1086 FILLER_34_3
*1087 FILLER_34_41
*1088 FILLER_34_50
*1089 FILLER_34_67
*1090 FILLER_34_77
*1091 FILLER_34_83
*1092 FILLER_34_85
*1093 FILLER_34_97
*1094 FILLER_35_105
*1095 FILLER_35_111
*1096 FILLER_35_113
*1097 FILLER_35_125
*1098 FILLER_35_137
*1099 FILLER_35_149
*1100 FILLER_35_15
*1101 FILLER_35_161
*1102 FILLER_35_167
*1103 FILLER_35_169
*1104 FILLER_35_181
*1105 FILLER_35_193
*1106 FILLER_35_205
*1107 FILLER_35_217
*1108 FILLER_35_223
*1109 FILLER_35_225
*1110 FILLER_35_237
*1111 FILLER_35_249
*1112 FILLER_35_261
*1113 FILLER_35_27
*1114 FILLER_35_273
*1115 FILLER_35_279
*1116 FILLER_35_281
*1117 FILLER_35_293
*1118 FILLER_35_3
*1119 FILLER_35_44
*1120 FILLER_35_57
*1121 FILLER_35_69
*1122 FILLER_35_81
*1123 FILLER_35_93
*1124 FILLER_36_109
*1125 FILLER_36_11
*1126 FILLER_36_121
*1127 FILLER_36_133
*1128 FILLER_36_139
*1129 FILLER_36_163
*1130 FILLER_36_175
*1131 FILLER_36_187
*1132 FILLER_36_195
*1133 FILLER_36_197
*1134 FILLER_36_209
*1135 FILLER_36_221
*1136 FILLER_36_23
*1137 FILLER_36_233
*1138 FILLER_36_245
*1139 FILLER_36_251
*1140 FILLER_36_253
*1141 FILLER_36_265
*1142 FILLER_36_27
*1143 FILLER_36_277
*1144 FILLER_36_289
*1145 FILLER_36_29
*1146 FILLER_36_297
*1147 FILLER_36_41
*1148 FILLER_36_53
*1149 FILLER_36_65
*1150 FILLER_36_77
*1151 FILLER_36_83
*1152 FILLER_36_85
*1153 FILLER_36_97
*1154 FILLER_37_106
*1155 FILLER_37_113
*1156 FILLER_37_125
*1157 FILLER_37_132
*1158 FILLER_37_144
*1159 FILLER_37_15
*1160 FILLER_37_156
*1161 FILLER_37_169
*1162 FILLER_37_181
*1163 FILLER_37_193
*1164 FILLER_37_205
*1165 FILLER_37_217
*1166 FILLER_37_223
*1167 FILLER_37_225
*1168 FILLER_37_237
*1169 FILLER_37_249
*1170 FILLER_37_261
*1171 FILLER_37_27
*1172 FILLER_37_273
*1173 FILLER_37_279
*1174 FILLER_37_281
*1175 FILLER_37_293
*1176 FILLER_37_3
*1177 FILLER_37_44
*1178 FILLER_37_57
*1179 FILLER_37_69
*1180 FILLER_37_77
*1181 FILLER_37_82
*1182 FILLER_37_94
*1183 FILLER_38_106
*1184 FILLER_38_132
*1185 FILLER_38_141
*1186 FILLER_38_15
*1187 FILLER_38_153
*1188 FILLER_38_165
*1189 FILLER_38_177
*1190 FILLER_38_189
*1191 FILLER_38_195
*1192 FILLER_38_197
*1193 FILLER_38_209
*1194 FILLER_38_221
*1195 FILLER_38_233
*1196 FILLER_38_245
*1197 FILLER_38_251
*1198 FILLER_38_253
*1199 FILLER_38_265
*1200 FILLER_38_27
*1201 FILLER_38_277
*1202 FILLER_38_289
*1203 FILLER_38_29
*1204 FILLER_38_297
*1205 FILLER_38_3
*1206 FILLER_38_41
*1207 FILLER_38_53
*1208 FILLER_38_62
*1209 FILLER_38_74
*1210 FILLER_38_82
*1211 FILLER_38_85
*1212 FILLER_38_97
*1213 FILLER_39_10
*1214 FILLER_39_105
*1215 FILLER_39_111
*1216 FILLER_39_113
*1217 FILLER_39_121
*1218 FILLER_39_134
*1219 FILLER_39_14
*1220 FILLER_39_146
*1221 FILLER_39_158
*1222 FILLER_39_166
*1223 FILLER_39_169
*1224 FILLER_39_181
*1225 FILLER_39_193
*1226 FILLER_39_205
*1227 FILLER_39_217
*1228 FILLER_39_22
*1229 FILLER_39_223
*1230 FILLER_39_225
*1231 FILLER_39_237
*1232 FILLER_39_249
*1233 FILLER_39_261
*1234 FILLER_39_273
*1235 FILLER_39_279
*1236 FILLER_39_281
*1237 FILLER_39_293
*1238 FILLER_39_3
*1239 FILLER_39_34
*1240 FILLER_39_46
*1241 FILLER_39_54
*1242 FILLER_39_57
*1243 FILLER_39_69
*1244 FILLER_39_81
*1245 FILLER_39_93
*1246 FILLER_3_103
*1247 FILLER_3_111
*1248 FILLER_3_113
*1249 FILLER_3_125
*1250 FILLER_3_137
*1251 FILLER_3_150
*1252 FILLER_3_162
*1253 FILLER_3_169
*1254 FILLER_3_181
*1255 FILLER_3_193
*1256 FILLER_3_205
*1257 FILLER_3_217
*1258 FILLER_3_223
*1259 FILLER_3_225
*1260 FILLER_3_23
*1261 FILLER_3_237
*1262 FILLER_3_249
*1263 FILLER_3_261
*1264 FILLER_3_27
*1265 FILLER_3_273
*1266 FILLER_3_279
*1267 FILLER_3_281
*1268 FILLER_3_293
*1269 FILLER_3_3
*1270 FILLER_3_46
*1271 FILLER_3_54
*1272 FILLER_3_57
*1273 FILLER_3_69
*1274 FILLER_3_78
*1275 FILLER_40_109
*1276 FILLER_40_121
*1277 FILLER_40_133
*1278 FILLER_40_139
*1279 FILLER_40_141
*1280 FILLER_40_15
*1281 FILLER_40_153
*1282 FILLER_40_165
*1283 FILLER_40_177
*1284 FILLER_40_189
*1285 FILLER_40_195
*1286 FILLER_40_197
*1287 FILLER_40_213
*1288 FILLER_40_225
*1289 FILLER_40_237
*1290 FILLER_40_249
*1291 FILLER_40_253
*1292 FILLER_40_265
*1293 FILLER_40_27
*1294 FILLER_40_277
*1295 FILLER_40_289
*1296 FILLER_40_297
*1297 FILLER_40_3
*1298 FILLER_40_38
*1299 FILLER_40_50
*1300 FILLER_40_62
*1301 FILLER_40_7
*1302 FILLER_40_74
*1303 FILLER_40_82
*1304 FILLER_40_85
*1305 FILLER_40_97
*1306 FILLER_41_101
*1307 FILLER_41_109
*1308 FILLER_41_113
*1309 FILLER_41_125
*1310 FILLER_41_137
*1311 FILLER_41_149
*1312 FILLER_41_15
*1313 FILLER_41_161
*1314 FILLER_41_167
*1315 FILLER_41_169
*1316 FILLER_41_181
*1317 FILLER_41_193
*1318 FILLER_41_205
*1319 FILLER_41_217
*1320 FILLER_41_223
*1321 FILLER_41_225
*1322 FILLER_41_237
*1323 FILLER_41_249
*1324 FILLER_41_261
*1325 FILLER_41_27
*1326 FILLER_41_273
*1327 FILLER_41_279
*1328 FILLER_41_281
*1329 FILLER_41_293
*1330 FILLER_41_3
*1331 FILLER_41_52
*1332 FILLER_41_57
*1333 FILLER_41_67
*1334 FILLER_41_79
*1335 FILLER_41_91
*1336 FILLER_41_95
*1337 FILLER_42_105
*1338 FILLER_42_117
*1339 FILLER_42_129
*1340 FILLER_42_137
*1341 FILLER_42_141
*1342 FILLER_42_15
*1343 FILLER_42_153
*1344 FILLER_42_165
*1345 FILLER_42_177
*1346 FILLER_42_189
*1347 FILLER_42_195
*1348 FILLER_42_197
*1349 FILLER_42_209
*1350 FILLER_42_221
*1351 FILLER_42_233
*1352 FILLER_42_245
*1353 FILLER_42_251
*1354 FILLER_42_253
*1355 FILLER_42_265
*1356 FILLER_42_27
*1357 FILLER_42_277
*1358 FILLER_42_289
*1359 FILLER_42_297
*1360 FILLER_42_3
*1361 FILLER_42_35
*1362 FILLER_42_47
*1363 FILLER_42_54
*1364 FILLER_42_67
*1365 FILLER_42_80
*1366 FILLER_42_85
*1367 FILLER_42_93
*1368 FILLER_43_102
*1369 FILLER_43_11
*1370 FILLER_43_110
*1371 FILLER_43_135
*1372 FILLER_43_147
*1373 FILLER_43_159
*1374 FILLER_43_167
*1375 FILLER_43_169
*1376 FILLER_43_181
*1377 FILLER_43_19
*1378 FILLER_43_193
*1379 FILLER_43_205
*1380 FILLER_43_217
*1381 FILLER_43_223
*1382 FILLER_43_225
*1383 FILLER_43_237
*1384 FILLER_43_249
*1385 FILLER_43_261
*1386 FILLER_43_27
*1387 FILLER_43_273
*1388 FILLER_43_279
*1389 FILLER_43_281
*1390 FILLER_43_293
*1391 FILLER_43_3
*1392 FILLER_43_31
*1393 FILLER_43_41
*1394 FILLER_43_52
*1395 FILLER_43_66
*1396 FILLER_43_78
*1397 FILLER_43_90
*1398 FILLER_44_109
*1399 FILLER_44_121
*1400 FILLER_44_133
*1401 FILLER_44_139
*1402 FILLER_44_141
*1403 FILLER_44_15
*1404 FILLER_44_153
*1405 FILLER_44_165
*1406 FILLER_44_177
*1407 FILLER_44_183
*1408 FILLER_44_195
*1409 FILLER_44_197
*1410 FILLER_44_209
*1411 FILLER_44_221
*1412 FILLER_44_233
*1413 FILLER_44_245
*1414 FILLER_44_251
*1415 FILLER_44_253
*1416 FILLER_44_265
*1417 FILLER_44_27
*1418 FILLER_44_277
*1419 FILLER_44_289
*1420 FILLER_44_29
*1421 FILLER_44_297
*1422 FILLER_44_3
*1423 FILLER_44_41
*1424 FILLER_44_53
*1425 FILLER_44_65
*1426 FILLER_44_77
*1427 FILLER_44_83
*1428 FILLER_44_85
*1429 FILLER_44_97
*1430 FILLER_45_107
*1431 FILLER_45_111
*1432 FILLER_45_113
*1433 FILLER_45_120
*1434 FILLER_45_132
*1435 FILLER_45_144
*1436 FILLER_45_15
*1437 FILLER_45_156
*1438 FILLER_45_169
*1439 FILLER_45_181
*1440 FILLER_45_193
*1441 FILLER_45_205
*1442 FILLER_45_217
*1443 FILLER_45_223
*1444 FILLER_45_225
*1445 FILLER_45_237
*1446 FILLER_45_249
*1447 FILLER_45_261
*1448 FILLER_45_27
*1449 FILLER_45_273
*1450 FILLER_45_279
*1451 FILLER_45_281
*1452 FILLER_45_293
*1453 FILLER_45_3
*1454 FILLER_45_39
*1455 FILLER_45_51
*1456 FILLER_45_55
*1457 FILLER_45_71
*1458 FILLER_45_83
*1459 FILLER_45_95
*1460 FILLER_46_109
*1461 FILLER_46_11
*1462 FILLER_46_121
*1463 FILLER_46_133
*1464 FILLER_46_139
*1465 FILLER_46_141
*1466 FILLER_46_153
*1467 FILLER_46_165
*1468 FILLER_46_177
*1469 FILLER_46_189
*1470 FILLER_46_195
*1471 FILLER_46_197
*1472 FILLER_46_209
*1473 FILLER_46_21
*1474 FILLER_46_221
*1475 FILLER_46_233
*1476 FILLER_46_245
*1477 FILLER_46_251
*1478 FILLER_46_253
*1479 FILLER_46_265
*1480 FILLER_46_27
*1481 FILLER_46_277
*1482 FILLER_46_289
*1483 FILLER_46_29
*1484 FILLER_46_297
*1485 FILLER_46_3
*1486 FILLER_46_41
*1487 FILLER_46_45
*1488 FILLER_46_49
*1489 FILLER_46_61
*1490 FILLER_46_73
*1491 FILLER_46_81
*1492 FILLER_46_85
*1493 FILLER_46_91
*1494 FILLER_46_97
*1495 FILLER_47_102
*1496 FILLER_47_110
*1497 FILLER_47_113
*1498 FILLER_47_125
*1499 FILLER_47_137
*1500 FILLER_47_149
*1501 FILLER_47_15
*1502 FILLER_47_161
*1503 FILLER_47_167
*1504 FILLER_47_169
*1505 FILLER_47_181
*1506 FILLER_47_193
*1507 FILLER_47_205
*1508 FILLER_47_217
*1509 FILLER_47_223
*1510 FILLER_47_225
*1511 FILLER_47_237
*1512 FILLER_47_249
*1513 FILLER_47_261
*1514 FILLER_47_27
*1515 FILLER_47_273
*1516 FILLER_47_279
*1517 FILLER_47_281
*1518 FILLER_47_293
*1519 FILLER_47_3
*1520 FILLER_47_39
*1521 FILLER_47_45
*1522 FILLER_47_50
*1523 FILLER_47_57
*1524 FILLER_47_69
*1525 FILLER_47_78
*1526 FILLER_47_90
*1527 FILLER_48_109
*1528 FILLER_48_121
*1529 FILLER_48_133
*1530 FILLER_48_139
*1531 FILLER_48_141
*1532 FILLER_48_153
*1533 FILLER_48_165
*1534 FILLER_48_177
*1535 FILLER_48_189
*1536 FILLER_48_195
*1537 FILLER_48_197
*1538 FILLER_48_20
*1539 FILLER_48_209
*1540 FILLER_48_221
*1541 FILLER_48_233
*1542 FILLER_48_245
*1543 FILLER_48_251
*1544 FILLER_48_253
*1545 FILLER_48_265
*1546 FILLER_48_277
*1547 FILLER_48_289
*1548 FILLER_48_29
*1549 FILLER_48_297
*1550 FILLER_48_3
*1551 FILLER_48_34
*1552 FILLER_48_44
*1553 FILLER_48_56
*1554 FILLER_48_64
*1555 FILLER_48_75
*1556 FILLER_48_8
*1557 FILLER_48_83
*1558 FILLER_48_85
*1559 FILLER_48_97
*1560 FILLER_49_105
*1561 FILLER_49_111
*1562 FILLER_49_113
*1563 FILLER_49_125
*1564 FILLER_49_137
*1565 FILLER_49_149
*1566 FILLER_49_15
*1567 FILLER_49_161
*1568 FILLER_49_167
*1569 FILLER_49_169
*1570 FILLER_49_181
*1571 FILLER_49_193
*1572 FILLER_49_205
*1573 FILLER_49_217
*1574 FILLER_49_223
*1575 FILLER_49_225
*1576 FILLER_49_237
*1577 FILLER_49_249
*1578 FILLER_49_261
*1579 FILLER_49_273
*1580 FILLER_49_279
*1581 FILLER_49_281
*1582 FILLER_49_293
*1583 FILLER_49_3
*1584 FILLER_49_32
*1585 FILLER_49_39
*1586 FILLER_49_51
*1587 FILLER_49_55
*1588 FILLER_49_57
*1589 FILLER_49_69
*1590 FILLER_49_81
*1591 FILLER_49_93
*1592 FILLER_4_109
*1593 FILLER_4_121
*1594 FILLER_4_133
*1595 FILLER_4_139
*1596 FILLER_4_147
*1597 FILLER_4_159
*1598 FILLER_4_171
*1599 FILLER_4_183
*1600 FILLER_4_19
*1601 FILLER_4_195
*1602 FILLER_4_197
*1603 FILLER_4_209
*1604 FILLER_4_221
*1605 FILLER_4_233
*1606 FILLER_4_245
*1607 FILLER_4_251
*1608 FILLER_4_253
*1609 FILLER_4_265
*1610 FILLER_4_27
*1611 FILLER_4_277
*1612 FILLER_4_289
*1613 FILLER_4_297
*1614 FILLER_4_46
*1615 FILLER_4_58
*1616 FILLER_4_7
*1617 FILLER_4_70
*1618 FILLER_4_82
*1619 FILLER_4_85
*1620 FILLER_4_97
*1621 FILLER_50_109
*1622 FILLER_50_121
*1623 FILLER_50_13
*1624 FILLER_50_133
*1625 FILLER_50_139
*1626 FILLER_50_141
*1627 FILLER_50_153
*1628 FILLER_50_165
*1629 FILLER_50_177
*1630 FILLER_50_189
*1631 FILLER_50_195
*1632 FILLER_50_197
*1633 FILLER_50_209
*1634 FILLER_50_221
*1635 FILLER_50_233
*1636 FILLER_50_245
*1637 FILLER_50_25
*1638 FILLER_50_251
*1639 FILLER_50_253
*1640 FILLER_50_265
*1641 FILLER_50_277
*1642 FILLER_50_289
*1643 FILLER_50_29
*1644 FILLER_50_297
*1645 FILLER_50_3
*1646 FILLER_50_41
*1647 FILLER_50_45