*SPEF "ieee 1481-1999"
*DESIGN "tiny_kinda_pic"
*DATE "11:11:11 Fri 11 11, 1111"
*VENDOR "OpenRCX"
*PROGRAM "Parallel Extraction"
*VERSION "1.0"
*DESIGN_FLOW "NAME_SCOPE LOCAL" "PIN_CAP NONE"
*DIVIDER /
*DELIMITER :
*BUS_DELIMITER []
*T_UNIT 1 NS
*C_UNIT 1 PF
*R_UNIT 1 OHM
*L_UNIT 1 HENRY

*NAME_MAP
*1 io_in[0]
*2 io_in[1]
*3 io_in[2]
*4 io_in[3]
*5 io_in[4]
*6 io_in[5]
*7 io_in[6]
*8 io_in[7]
*9 io_out[0]
*10 io_out[1]
*11 io_out[2]
*12 io_out[3]
*13 io_out[4]
*14 io_out[5]
*15 io_out[6]
*16 io_out[7]
*19 _0000_
*20 _0001_
*21 _0002_
*22 _0003_
*23 _0004_
*24 _0005_
*25 _0006_
*26 _0007_
*27 _0008_
*28 _0009_
*29 _0010_
*30 _0011_
*31 _0012_
*32 _0013_
*33 _0014_
*34 _0015_
*35 _0016_
*36 _0017_
*37 _0018_
*38 _0019_
*39 _0020_
*40 _0021_
*41 _0022_
*42 _0023_
*43 _0024_
*44 _0025_
*45 _0026_
*46 _0027_
*47 _0028_
*48 _0029_
*49 _0030_
*50 _0031_
*51 _0032_
*52 _0033_
*53 _0034_
*54 _0035_
*55 _0036_
*56 _0037_
*57 _0038_
*58 _0039_
*59 _0040_
*60 _0041_
*61 _0042_
*62 _0043_
*63 _0044_
*64 _0045_
*65 _0046_
*66 _0047_
*67 _0048_
*68 _0049_
*69 _0050_
*70 _0051_
*71 _0052_
*72 _0053_
*73 _0054_
*74 _0055_
*75 _0056_
*76 _0057_
*77 _0058_
*78 _0059_
*79 _0060_
*80 _0061_
*81 _0062_
*82 _0063_
*83 _0064_
*84 _0065_
*85 _0066_
*86 _0067_
*87 _0068_
*88 _0069_
*89 _0070_
*90 _0071_
*91 _0072_
*92 _0073_
*93 _0074_
*94 _0075_
*95 _0076_
*96 _0077_
*97 _0078_
*98 _0079_
*99 _0080_
*100 _0081_
*101 _0082_
*102 _0083_
*103 _0084_
*104 _0085_
*105 _0086_
*106 _0087_
*107 _0088_
*108 _0089_
*109 _0090_
*110 _0091_
*111 _0092_
*112 _0093_
*113 _0094_
*114 _0095_
*115 _0096_
*116 _0097_
*117 _0098_
*118 _0099_
*119 _0100_
*120 _0101_
*121 _0102_
*122 _0103_
*123 _0104_
*124 _0105_
*125 _0106_
*126 _0107_
*127 _0108_
*128 _0109_
*129 _0110_
*130 _0111_
*131 _0112_
*132 _0113_
*133 _0114_
*134 _0115_
*135 _0116_
*136 _0117_
*137 _0118_
*138 _0119_
*139 _0120_
*140 _0121_
*141 _0122_
*142 _0123_
*143 _0124_
*144 _0125_
*145 _0126_
*146 _0127_
*147 _0128_
*148 _0129_
*149 _0130_
*150 _0131_
*151 _0132_
*152 _0133_
*153 _0134_
*154 _0135_
*155 _0136_
*156 _0137_
*157 _0138_
*158 _0139_
*159 _0140_
*160 _0141_
*161 _0142_
*162 _0143_
*163 _0144_
*164 _0145_
*165 _0146_
*166 _0147_
*167 _0148_
*168 _0149_
*169 _0150_
*170 _0151_
*171 _0152_
*172 _0153_
*173 _0154_
*174 _0155_
*175 _0156_
*176 _0157_
*177 _0158_
*178 _0159_
*179 _0160_
*180 _0161_
*181 _0162_
*182 _0163_
*183 _0164_
*184 _0165_
*185 _0166_
*186 _0167_
*187 _0168_
*188 _0169_
*189 _0170_
*190 _0171_
*191 _0172_
*192 _0173_
*193 _0174_
*194 _0175_
*195 _0176_
*196 _0177_
*197 _0178_
*198 _0179_
*199 _0180_
*200 _0181_
*201 _0182_
*202 _0183_
*203 _0184_
*204 _0185_
*205 _0186_
*206 _0187_
*207 _0188_
*208 _0189_
*209 _0190_
*210 _0191_
*211 _0192_
*212 _0193_
*213 _0194_
*214 _0195_
*215 _0196_
*216 _0197_
*217 _0198_
*218 _0199_
*219 _0200_
*220 _0201_
*221 _0202_
*222 _0203_
*223 _0204_
*224 _0205_
*225 _0206_
*226 _0207_
*227 _0208_
*228 _0209_
*229 _0210_
*230 _0211_
*231 _0212_
*232 _0213_
*233 _0214_
*234 _0215_
*235 _0216_
*236 _0217_
*237 _0218_
*238 _0219_
*239 _0220_
*240 _0221_
*241 _0222_
*242 _0223_
*243 _0224_
*244 _0225_
*245 _0226_
*246 _0227_
*247 _0228_
*248 _0229_
*249 _0230_
*250 _0231_
*251 _0232_
*252 _0233_
*253 _0234_
*254 _0235_
*255 _0236_
*256 _0237_
*257 _0238_
*258 _0239_
*259 _0240_
*260 _0241_
*261 _0242_
*262 _0243_
*263 _0244_
*264 _0245_
*265 _0246_
*266 _0247_
*267 _0248_
*268 _0249_
*269 _0250_
*270 _0251_
*271 _0252_
*272 _0253_
*273 _0254_
*274 _0255_
*275 _0256_
*276 _0257_
*277 _0258_
*278 _0259_
*279 _0260_
*280 _0261_
*281 _0262_
*282 _0263_
*283 _0264_
*284 _0265_
*285 _0266_
*286 _0267_
*287 _0268_
*288 _0269_
*289 _0270_
*290 _0271_
*291 _0272_
*292 _0273_
*293 _0274_
*294 _0275_
*295 _0276_
*296 _0277_
*297 _0278_
*298 _0279_
*299 _0280_
*300 _0281_
*301 _0282_
*302 _0283_
*303 _0284_
*304 _0285_
*305 _0286_
*306 _0287_
*307 _0288_
*308 _0289_
*309 _0290_
*310 _0291_
*311 _0292_
*312 _0293_
*313 _0294_
*314 _0295_
*315 _0296_
*316 _0297_
*317 _0298_
*318 _0299_
*319 _0300_
*320 _0301_
*321 _0302_
*322 _0303_
*323 _0304_
*324 _0305_
*325 _0306_
*326 _0307_
*327 _0308_
*328 _0309_
*329 _0310_
*330 _0311_
*331 _0312_
*332 _0313_
*333 _0314_
*334 _0315_
*335 _0316_
*336 _0317_
*337 _0318_
*338 _0319_
*339 _0320_
*340 _0321_
*341 _0322_
*342 _0323_
*343 _0324_
*344 _0325_
*345 _0326_
*346 _0327_
*347 _0328_
*348 _0329_
*349 _0330_
*350 _0331_
*351 _0332_
*352 _0333_
*353 _0334_
*354 _0335_
*355 _0336_
*356 _0337_
*357 _0338_
*358 _0339_
*359 _0340_
*360 _0341_
*361 _0342_
*362 _0343_
*363 _0344_
*364 _0345_
*365 _0346_
*366 _0347_
*367 _0348_
*368 _0349_
*369 _0350_
*370 _0351_
*371 _0352_
*372 _0353_
*373 _0354_
*374 _0355_
*375 _0356_
*376 _0357_
*377 _0358_
*378 _0359_
*379 _0360_
*380 _0361_
*381 _0362_
*382 _0363_
*383 _0364_
*384 _0365_
*385 _0366_
*386 _0367_
*387 _0368_
*388 _0369_
*389 _0370_
*390 _0371_
*391 _0372_
*392 _0373_
*393 _0374_
*394 _0375_
*395 _0376_
*396 _0377_
*397 _0378_
*398 _0379_
*399 _0380_
*400 _0381_
*401 _0382_
*402 _0383_
*403 _0384_
*404 _0385_
*405 _0386_
*406 _0387_
*407 _0388_
*408 _0389_
*409 _0390_
*410 _0391_
*411 _0392_
*412 _0393_
*413 _0394_
*414 _0395_
*415 _0396_
*416 _0397_
*417 _0398_
*418 _0399_
*419 _0400_
*420 _0401_
*421 _0402_
*422 _0403_
*423 _0404_
*424 _0405_
*425 _0406_
*426 _0407_
*427 _0408_
*428 _0409_
*429 _0410_
*430 _0411_
*431 _0412_
*432 _0413_
*433 _0414_
*434 _0415_
*435 _0416_
*436 _0417_
*437 _0418_
*438 _0419_
*439 _0420_
*440 _0421_
*441 _0422_
*442 _0423_
*443 _0424_
*444 _0425_
*445 _0426_
*446 _0427_
*447 _0428_
*448 _0429_
*449 _0430_
*450 _0431_
*451 _0432_
*452 _0433_
*453 _0434_
*454 _0435_
*455 _0436_
*456 _0437_
*457 _0438_
*458 _0439_
*459 _0440_
*460 _0441_
*461 _0442_
*462 _0443_
*463 _0444_
*464 _0445_
*465 _0446_
*466 _0447_
*467 _0448_
*468 _0449_
*469 _0450_
*470 _0451_
*471 _0452_
*472 _0453_
*473 _0454_
*474 _0455_
*475 _0456_
*476 _0457_
*477 _0458_
*478 _0459_
*479 _0460_
*480 _0461_
*481 _0462_
*482 _0463_
*483 _0464_
*484 _0465_
*485 _0466_
*486 _0467_
*487 _0468_
*488 _0469_
*489 _0470_
*490 _0471_
*491 _0472_
*492 _0473_
*493 _0474_
*494 _0475_
*495 _0476_
*496 _0477_
*497 _0478_
*498 _0479_
*499 _0480_
*500 _0481_
*501 _0482_
*502 _0483_
*503 _0484_
*504 _0485_
*505 _0486_
*506 _0487_
*507 _0488_
*508 _0489_
*509 _0490_
*510 _0491_
*511 _0492_
*512 _0493_
*513 _0494_
*514 _0495_
*515 _0496_
*516 _0497_
*517 _0498_
*518 _0499_
*519 _0500_
*520 _0501_
*521 _0502_
*522 _0503_
*523 _0504_
*524 _0505_
*525 _0506_
*526 _0507_
*527 _0508_
*528 _0509_
*529 _0510_
*530 _0511_
*531 _0512_
*532 _0513_
*533 _0514_
*534 _0515_
*535 _0516_
*536 _0517_
*537 _0518_
*538 _0519_
*539 _0520_
*540 _0521_
*541 _0522_
*542 _0523_
*543 _0524_
*544 _0525_
*545 _0526_
*546 _0527_
*547 _0528_
*548 _0529_
*549 _0530_
*550 _0531_
*551 _0532_
*552 _0533_
*553 _0534_
*554 _0535_
*555 _0536_
*556 _0537_
*557 _0538_
*558 _0539_
*559 _0540_
*560 _0541_
*561 _0542_
*562 _0543_
*563 _0544_
*564 _0545_
*565 _0546_
*566 _0547_
*567 _0548_
*568 _0549_
*569 _0550_
*570 _0551_
*571 _0552_
*572 _0553_
*573 _0554_
*574 _0555_
*575 _0556_
*576 _0557_
*577 _0558_
*578 _0559_
*579 _0560_
*580 _0561_
*581 _0562_
*582 _0563_
*583 _0564_
*584 _0565_
*585 _0566_
*586 _0567_
*587 _0568_
*588 _0569_
*589 _0570_
*590 _0571_
*591 _0572_
*592 _0573_
*593 _0574_
*594 _0575_
*595 _0576_
*596 _0577_
*597 _0578_
*598 _0579_
*599 _0580_
*600 _0581_
*601 _0582_
*602 _0583_
*603 _0584_
*604 _0585_
*605 _0586_
*606 _0587_
*607 _0588_
*608 _0589_
*609 _0590_
*610 _0591_
*611 _0592_
*612 _0593_
*613 _0594_
*614 _0595_
*615 _0596_
*616 _0597_
*617 _0598_
*618 _0599_
*619 _0600_
*620 _0601_
*621 _0602_
*622 _0603_
*623 _0604_
*624 _0605_
*625 _0606_
*626 _0607_
*627 _0608_
*628 _0609_
*629 _0610_
*630 _0611_
*631 _0612_
*632 _0613_
*633 _0614_
*634 _0615_
*635 _0616_
*636 _0617_
*637 _0618_
*638 _0619_
*639 _0620_
*640 _0621_
*641 _0622_
*642 _0623_
*643 _0624_
*644 _0625_
*645 _0626_
*646 _0627_
*647 _0628_
*648 _0629_
*649 _0630_
*650 _0631_
*651 _0632_
*652 _0633_
*653 _0634_
*654 _0635_
*655 _0636_
*656 _0637_
*657 _0638_
*658 _0639_
*659 _0640_
*660 _0641_
*661 _0642_
*662 _0643_
*663 _0644_
*664 _0645_
*665 _0646_
*666 _0647_
*667 _0648_
*668 _0649_
*669 _0650_
*670 _0651_
*671 _0652_
*672 _0653_
*673 _0654_
*674 _0655_
*675 _0656_
*676 _0657_
*677 _0658_
*678 _0659_
*679 _0660_
*680 _0661_
*681 _0662_
*682 _0663_
*683 _0664_
*684 _0665_
*685 _0666_
*686 _0667_
*687 _0668_
*688 _0669_
*689 _0670_
*690 _0671_
*691 _0672_
*692 _0673_
*693 _0674_
*694 _0675_
*695 _0676_
*696 _0677_
*697 _0678_
*698 _0679_
*699 _0680_
*700 _0681_
*701 _0682_
*702 _0683_
*703 _0684_
*704 _0685_
*705 _0686_
*706 _0687_
*707 _0688_
*708 _0689_
*709 _0690_
*710 _0691_
*711 _0692_
*712 _0693_
*713 _0694_
*714 _0695_
*715 _0696_
*716 _0697_
*717 _0698_
*718 _0699_
*719 clknet_0_io_in[0]
*720 clknet_3_0__leaf_io_in[0]
*721 clknet_3_1__leaf_io_in[0]
*722 clknet_3_2__leaf_io_in[0]
*723 clknet_3_3__leaf_io_in[0]
*724 clknet_3_4__leaf_io_in[0]
*725 clknet_3_5__leaf_io_in[0]
*726 clknet_3_6__leaf_io_in[0]
*727 clknet_3_7__leaf_io_in[0]
*728 net1
*729 net10
*730 net100
*731 net101
*732 net102
*733 net103
*734 net104
*735 net105
*736 net106
*737 net107
*738 net108
*739 net109
*740 net11
*741 net110
*742 net111
*743 net112
*744 net113
*745 net114
*746 net115
*747 net116
*748 net117
*749 net118
*750 net119
*751 net12
*752 net120
*753 net121
*754 net122
*755 net123
*756 net124
*757 net125
*758 net126
*759 net127
*760 net128
*761 net129
*762 net13
*763 net130
*764 net131
*765 net132
*766 net133
*767 net134
*768 net135
*769 net136
*770 net137
*771 net138
*772 net139
*773 net14
*774 net140
*775 net141
*776 net142
*777 net143
*778 net144
*779 net145
*780 net146
*781 net147
*782 net148
*783 net149
*784 net15
*785 net150
*786 net151
*787 net152
*788 net153
*789 net154
*790 net155
*791 net156
*792 net157
*793 net158
*794 net159
*795 net16
*796 net160
*797 net161
*798 net162
*799 net163
*800 net164
*801 net165
*802 net166
*803 net167
*804 net168
*805 net169
*806 net17
*807 net170
*808 net171
*809 net172
*810 net173
*811 net174
*812 net175
*813 net176
*814 net177
*815 net178
*816 net179
*817 net18
*818 net180
*819 net181
*820 net182
*821 net183
*822 net19
*823 net2
*824 net20
*825 net21
*826 net22
*827 net23
*828 net24
*829 net25
*830 net26
*831 net27
*832 net28
*833 net29
*834 net3
*835 net30
*836 net31
*837 net32
*838 net33
*839 net34
*840 net35
*841 net36
*842 net37
*843 net38
*844 net39
*845 net4
*846 net40
*847 net41
*848 net42
*849 net43
*850 net44
*851 net45
*852 net46
*853 net47
*854 net48
*855 net49
*856 net5
*857 net50
*858 net51
*859 net52
*860 net53
*861 net54
*862 net55
*863 net56
*864 net57
*865 net58
*866 net59
*867 net6
*868 net60
*869 net61
*870 net62
*871 net63
*872 net64
*873 net65
*874 net66
*875 net67
*876 net68
*877 net69
*878 net7
*879 net70
*880 net71
*881 net72
*882 net73
*883 net74
*884 net75
*885 net76
*886 net77
*887 net78
*888 net79
*889 net8
*890 net80
*891 net81
*892 net82
*893 net83
*894 net84
*895 net85
*896 net86
*897 net87
*898 net88
*899 net89
*900 net9
*901 net90
*902 net91
*903 net92
*904 net93
*905 net94
*906 net95
*907 net96
*908 net97
*909 net98
*910 net99
*911 pic_i\.next_pc\[0\]
*912 pic_i\.next_pc\[1\]
*913 pic_i\.next_pc\[2\]
*914 pic_i\.next_pc\[3\]
*915 pic_i\.next_skip
*916 pic_i\.next_skip_zero
*917 pic_i\.pc\[0\]
*918 pic_i\.pc\[1\]
*919 pic_i\.pc\[2\]
*920 pic_i\.pc\[3\]
*921 pic_i\.phase\[0\]
*922 pic_i\.phase\[1\]
*923 pic_i\.reg_we
*924 pic_i\.regf_data\[0\]\[0\]
*925 pic_i\.regf_data\[0\]\[1\]
*926 pic_i\.regf_data\[0\]\[2\]
*927 pic_i\.regf_data\[0\]\[3\]
*928 pic_i\.regf_data\[0\]\[4\]
*929 pic_i\.regf_data\[0\]\[5\]
*930 pic_i\.regf_data\[0\]\[6\]
*931 pic_i\.regf_data\[0\]\[7\]
*932 pic_i\.regf_data\[1\]\[0\]
*933 pic_i\.regf_data\[1\]\[1\]
*934 pic_i\.regf_data\[1\]\[2\]
*935 pic_i\.regf_data\[1\]\[3\]
*936 pic_i\.regf_data\[1\]\[4\]
*937 pic_i\.regf_data\[1\]\[5\]
*938 pic_i\.regf_data\[1\]\[6\]
*939 pic_i\.regf_data\[1\]\[7\]
*940 pic_i\.regf_data\[2\]\[0\]
*941 pic_i\.regf_data\[2\]\[1\]
*942 pic_i\.regf_data\[2\]\[2\]
*943 pic_i\.regf_data\[2\]\[3\]
*944 pic_i\.regf_data\[2\]\[4\]
*945 pic_i\.regf_data\[2\]\[5\]
*946 pic_i\.regf_data\[2\]\[6\]
*947 pic_i\.regf_data\[2\]\[7\]
*948 pic_i\.regf_data\[3\]\[0\]
*949 pic_i\.regf_data\[3\]\[1\]
*950 pic_i\.regf_data\[3\]\[2\]
*951 pic_i\.regf_data\[3\]\[3\]
*952 pic_i\.regf_data\[3\]\[4\]
*953 pic_i\.regf_data\[3\]\[5\]
*954 pic_i\.regf_data\[3\]\[6\]
*955 pic_i\.regf_data\[3\]\[7\]
*956 pic_i\.regf_data\[4\]\[0\]
*957 pic_i\.regf_data\[4\]\[1\]
*958 pic_i\.regf_data\[4\]\[2\]
*959 pic_i\.regf_data\[4\]\[3\]
*960 pic_i\.regf_data\[4\]\[4\]
*961 pic_i\.regf_data\[4\]\[5\]
*962 pic_i\.regf_data\[4\]\[6\]
*963 pic_i\.regf_data\[4\]\[7\]
*964 pic_i\.regf_data\[5\]\[0\]
*965 pic_i\.regf_data\[5\]\[1\]
*966 pic_i\.regf_data\[5\]\[2\]
*967 pic_i\.regf_data\[5\]\[3\]
*968 pic_i\.regf_data\[5\]\[4\]
*969 pic_i\.regf_data\[5\]\[5\]
*970 pic_i\.regf_data\[5\]\[6\]
*971 pic_i\.regf_data\[5\]\[7\]
*972 pic_i\.regf_we
*973 pic_i\.result\[0\]
*974 pic_i\.result\[1\]
*975 pic_i\.result\[2\]
*976 pic_i\.result\[3\]
*977 pic_i\.result\[4\]
*978 pic_i\.result\[5\]
*979 pic_i\.result\[6\]
*980 pic_i\.result\[7\]
*981 pic_i\.skip
*982 pic_i\.w\[0\]
*983 pic_i\.w\[1\]
*984 pic_i\.w\[2\]
*985 pic_i\.w\[3\]
*986 pic_i\.w\[4\]
*987 pic_i\.w\[5\]
*988 pic_i\.w\[6\]
*989 pic_i\.w\[7\]
*990 pic_i\.w_we
*991 pic_i\.word\[0\]\.word_we
*992 pic_i\.word\[1\]\.word_we
*993 pic_i\.word\[2\]\.word_we
*994 pic_i\.word\[3\]\.word_we
*995 pic_i\.word\[4\]\.word_we
*996 pic_i\.word\[5\]\.word_we
*997 progmem_i\.data\[0\]\[0\]
*998 progmem_i\.data\[0\]\[10\]
*999 progmem_i\.data\[0\]\[11\]
*1000 progmem_i\.data\[0\]\[1\]
*1001 progmem_i\.data\[0\]\[2\]
*1002 progmem_i\.data\[0\]\[3\]
*1003 progmem_i\.data\[0\]\[4\]
*1004 progmem_i\.data\[0\]\[5\]
*1005 progmem_i\.data\[0\]\[6\]
*1006 progmem_i\.data\[0\]\[7\]
*1007 progmem_i\.data\[0\]\[8\]
*1008 progmem_i\.data\[0\]\[9\]
*1009 progmem_i\.data\[10\]\[0\]
*1010 progmem_i\.data\[10\]\[10\]
*1011 progmem_i\.data\[10\]\[11\]
*1012 progmem_i\.data\[10\]\[1\]
*1013 progmem_i\.data\[10\]\[2\]
*1014 progmem_i\.data\[10\]\[3\]
*1015 progmem_i\.data\[10\]\[4\]
*1016 progmem_i\.data\[10\]\[5\]
*1017 progmem_i\.data\[10\]\[6\]
*1018 progmem_i\.data\[10\]\[7\]
*1019 progmem_i\.data\[10\]\[8\]
*1020 progmem_i\.data\[10\]\[9\]
*1021 progmem_i\.data\[11\]\[0\]
*1022 progmem_i\.data\[11\]\[10\]
*1023 progmem_i\.data\[11\]\[11\]
*1024 progmem_i\.data\[11\]\[1\]
*1025 progmem_i\.data\[11\]\[2\]
*1026 progmem_i\.data\[11\]\[3\]
*1027 progmem_i\.data\[11\]\[4\]
*1028 progmem_i\.data\[11\]\[5\]
*1029 progmem_i\.data\[11\]\[6\]
*1030 progmem_i\.data\[11\]\[7\]
*1031 progmem_i\.data\[11\]\[8\]
*1032 progmem_i\.data\[11\]\[9\]
*1033 progmem_i\.data\[12\]\[0\]
*1034 progmem_i\.data\[12\]\[10\]
*1035 progmem_i\.data\[12\]\[11\]
*1036 progmem_i\.data\[12\]\[1\]
*1037 progmem_i\.data\[12\]\[2\]
*1038 progmem_i\.data\[12\]\[3\]
*1039 progmem_i\.data\[12\]\[4\]
*1040 progmem_i\.data\[12\]\[5\]
*1041 progmem_i\.data\[12\]\[6\]
*1042 progmem_i\.data\[12\]\[7\]
*1043 progmem_i\.data\[12\]\[8\]
*1044 progmem_i\.data\[12\]\[9\]
*1045 progmem_i\.data\[13\]\[0\]
*1046 progmem_i\.data\[13\]\[10\]
*1047 progmem_i\.data\[13\]\[11\]
*1048 progmem_i\.data\[13\]\[1\]
*1049 progmem_i\.data\[13\]\[2\]
*1050 progmem_i\.data\[13\]\[3\]
*1051 progmem_i\.data\[13\]\[4\]
*1052 progmem_i\.data\[13\]\[5\]
*1053 progmem_i\.data\[13\]\[6\]
*1054 progmem_i\.data\[13\]\[7\]
*1055 progmem_i\.data\[13\]\[8\]
*1056 progmem_i\.data\[13\]\[9\]
*1057 progmem_i\.data\[14\]\[0\]
*1058 progmem_i\.data\[14\]\[10\]
*1059 progmem_i\.data\[14\]\[11\]
*1060 progmem_i\.data\[14\]\[1\]
*1061 progmem_i\.data\[14\]\[2\]
*1062 progmem_i\.data\[14\]\[3\]
*1063 progmem_i\.data\[14\]\[4\]
*1064 progmem_i\.data\[14\]\[5\]
*1065 progmem_i\.data\[14\]\[6\]
*1066 progmem_i\.data\[14\]\[7\]
*1067 progmem_i\.data\[14\]\[8\]
*1068 progmem_i\.data\[14\]\[9\]
*1069 progmem_i\.data\[15\]\[0\]
*1070 progmem_i\.data\[15\]\[10\]
*1071 progmem_i\.data\[15\]\[11\]
*1072 progmem_i\.data\[15\]\[1\]
*1073 progmem_i\.data\[15\]\[2\]
*1074 progmem_i\.data\[15\]\[3\]
*1075 progmem_i\.data\[15\]\[4\]
*1076 progmem_i\.data\[15\]\[5\]
*1077 progmem_i\.data\[15\]\[6\]
*1078 progmem_i\.data\[15\]\[7\]
*1079 progmem_i\.data\[15\]\[8\]
*1080 progmem_i\.data\[15\]\[9\]
*1081 progmem_i\.data\[1\]\[0\]
*1082 progmem_i\.data\[1\]\[10\]
*1083 progmem_i\.data\[1\]\[11\]
*1084 progmem_i\.data\[1\]\[1\]
*1085 progmem_i\.data\[1\]\[2\]
*1086 progmem_i\.data\[1\]\[3\]
*1087 progmem_i\.data\[1\]\[4\]
*1088 progmem_i\.data\[1\]\[5\]
*1089 progmem_i\.data\[1\]\[6\]
*1090 progmem_i\.data\[1\]\[7\]
*1091 progmem_i\.data\[1\]\[8\]
*1092 progmem_i\.data\[1\]\[9\]
*1093 progmem_i\.data\[2\]\[0\]
*1094 progmem_i\.data\[2\]\[10\]
*1095 progmem_i\.data\[2\]\[11\]
*1096 progmem_i\.data\[2\]\[1\]
*1097 progmem_i\.data\[2\]\[2\]
*1098 progmem_i\.data\[2\]\[3\]
*1099 progmem_i\.data\[2\]\[4\]
*1100 progmem_i\.data\[2\]\[5\]
*1101 progmem_i\.data\[2\]\[6\]
*1102 progmem_i\.data\[2\]\[7\]
*1103 progmem_i\.data\[2\]\[8\]
*1104 progmem_i\.data\[2\]\[9\]
*1105 progmem_i\.data\[3\]\[0\]
*1106 progmem_i\.data\[3\]\[10\]
*1107 progmem_i\.data\[3\]\[11\]
*1108 progmem_i\.data\[3\]\[1\]
*1109 progmem_i\.data\[3\]\[2\]
*1110 progmem_i\.data\[3\]\[3\]
*1111 progmem_i\.data\[3\]\[4\]
*1112 progmem_i\.data\[3\]\[5\]
*1113 progmem_i\.data\[3\]\[6\]
*1114 progmem_i\.data\[3\]\[7\]
*1115 progmem_i\.data\[3\]\[8\]
*1116 progmem_i\.data\[3\]\[9\]
*1117 progmem_i\.data\[4\]\[0\]
*1118 progmem_i\.data\[4\]\[10\]
*1119 progmem_i\.data\[4\]\[11\]
*1120 progmem_i\.data\[4\]\[1\]
*1121 progmem_i\.data\[4\]\[2\]
*1122 progmem_i\.data\[4\]\[3\]
*1123 progmem_i\.data\[4\]\[4\]
*1124 progmem_i\.data\[4\]\[5\]
*1125 progmem_i\.data\[4\]\[6\]
*1126 progmem_i\.data\[4\]\[7\]
*1127 progmem_i\.data\[4\]\[8\]
*1128 progmem_i\.data\[4\]\[9\]
*1129 progmem_i\.data\[5\]\[0\]
*1130 progmem_i\.data\[5\]\[10\]
*1131 progmem_i\.data\[5\]\[11\]
*1132 progmem_i\.data\[5\]\[1\]
*1133 progmem_i\.data\[5\]\[2\]
*1134 progmem_i\.data\[5\]\[3\]
*1135 progmem_i\.data\[5\]\[4\]
*1136 progmem_i\.data\[5\]\[5\]
*1137 progmem_i\.data\[5\]\[6\]
*1138 progmem_i\.data\[5\]\[7\]
*1139 progmem_i\.data\[5\]\[8\]
*1140 progmem_i\.data\[5\]\[9\]
*1141 progmem_i\.data\[6\]\[0\]
*1142 progmem_i\.data\[6\]\[10\]
*1143 progmem_i\.data\[6\]\[11\]
*1144 progmem_i\.data\[6\]\[1\]
*1145 progmem_i\.data\[6\]\[2\]
*1146 progmem_i\.data\[6\]\[3\]
*1147 progmem_i\.data\[6\]\[4\]
*1148 progmem_i\.data\[6\]\[5\]
*1149 progmem_i\.data\[6\]\[6\]
*1150 progmem_i\.data\[6\]\[7\]
*1151 progmem_i\.data\[6\]\[8\]
*1152 progmem_i\.data\[6\]\[9\]
*1153 progmem_i\.data\[7\]\[0\]
*1154 progmem_i\.data\[7\]\[10\]
*1155 progmem_i\.data\[7\]\[11\]
*1156 progmem_i\.data\[7\]\[1\]
*1157 progmem_i\.data\[7\]\[2\]
*1158 progmem_i\.data\[7\]\[3\]
*1159 progmem_i\.data\[7\]\[4\]
*1160 progmem_i\.data\[7\]\[5\]
*1161 progmem_i\.data\[7\]\[6\]
*1162 progmem_i\.data\[7\]\[7\]
*1163 progmem_i\.data\[7\]\[8\]
*1164 progmem_i\.data\[7\]\[9\]
*1165 progmem_i\.data\[8\]\[0\]
*1166 progmem_i\.data\[8\]\[10\]
*1167 progmem_i\.data\[8\]\[11\]
*1168 progmem_i\.data\[8\]\[1\]
*1169 progmem_i\.data\[8\]\[2\]
*1170 progmem_i\.data\[8\]\[3\]
*1171 progmem_i\.data\[8\]\[4\]
*1172 progmem_i\.data\[8\]\[5\]
*1173 progmem_i\.data\[8\]\[6\]
*1174 progmem_i\.data\[8\]\[7\]
*1175 progmem_i\.data\[8\]\[8\]
*1176 progmem_i\.data\[8\]\[9\]
*1177 progmem_i\.data\[9\]\[0\]
*1178 progmem_i\.data\[9\]\[10\]
*1179 progmem_i\.data\[9\]\[11\]
*1180 progmem_i\.data\[9\]\[1\]
*1181 progmem_i\.data\[9\]\[2\]
*1182 progmem_i\.data\[9\]\[3\]
*1183 progmem_i\.data\[9\]\[4\]
*1184 progmem_i\.data\[9\]\[5\]
*1185 progmem_i\.data\[9\]\[6\]
*1186 progmem_i\.data\[9\]\[7\]
*1187 progmem_i\.data\[9\]\[8\]
*1188 progmem_i\.data\[9\]\[9\]
*1189 progmem_i\.write_sr\[0\]
*1190 progmem_i\.write_sr\[10\]
*1191 progmem_i\.write_sr\[11\]
*1192 progmem_i\.write_sr\[12\]
*1193 progmem_i\.write_sr\[13\]
*1194 progmem_i\.write_sr\[14\]
*1195 progmem_i\.write_sr\[15\]
*1196 progmem_i\.write_sr\[16\]
*1197 progmem_i\.write_sr\[17\]
*1198 progmem_i\.write_sr\[18\]
*1199 progmem_i\.write_sr\[19\]
*1200 progmem_i\.write_sr\[1\]
*1201 progmem_i\.write_sr\[20\]
*1202 progmem_i\.write_sr\[21\]
*1203 progmem_i\.write_sr\[22\]
*1204 progmem_i\.write_sr\[23\]
*1205 progmem_i\.write_sr\[24\]
*1206 progmem_i\.write_sr\[25\]
*1207 progmem_i\.write_sr\[26\]
*1208 progmem_i\.write_sr\[27\]
*1209 progmem_i\.write_sr\[2\]
*1210 progmem_i\.write_sr\[3\]
*1211 progmem_i\.write_sr\[4\]
*1212 progmem_i\.write_sr\[5\]
*1213 progmem_i\.write_sr\[6\]
*1214 progmem_i\.write_sr\[7\]
*1215 progmem_i\.write_sr\[8\]
*1216 progmem_i\.write_sr\[9\]
*1217 ANTENNA_0
*1218 ANTENNA_1
*1219 ANTENNA_2
*1220 ANTENNA_3
*1221 ANTENNA_4
*1222 ANTENNA_5
*1223 ANTENNA_6
*1224 ANTENNA_7
*1225 ANTENNA_8
*1226 FILLER_0_108
*1227 FILLER_0_113
*1228 FILLER_0_120
*1229 FILLER_0_136
*1230 FILLER_0_148
*1231 FILLER_0_164
*1232 FILLER_0_173
*1233 FILLER_0_189
*1234 FILLER_0_19
*1235 FILLER_0_195
*1236 FILLER_0_209
*1237 FILLER_0_220
*1238 FILLER_0_225
*1239 FILLER_0_241
*1240 FILLER_0_248
*1241 FILLER_0_260
*1242 FILLER_0_268
*1243 FILLER_0_27
*1244 FILLER_0_276
*1245 FILLER_0_281
*1246 FILLER_0_289
*1247 FILLER_0_29
*1248 FILLER_0_297
*1249 FILLER_0_38
*1250 FILLER_0_45
*1251 FILLER_0_52
*1252 FILLER_0_57
*1253 FILLER_0_64
*1254 FILLER_0_80
*1255 FILLER_0_85
*1256 FILLER_10_103
*1257 FILLER_10_113
*1258 FILLER_10_117
*1259 FILLER_10_121
*1260 FILLER_10_128
*1261 FILLER_10_136
*1262 FILLER_10_141
*1263 FILLER_10_145
*1264 FILLER_10_158
*1265 FILLER_10_176
*1266 FILLER_10_192
*1267 FILLER_10_209
*1268 FILLER_10_225
*1269 FILLER_10_239
*1270 FILLER_10_24
*1271 FILLER_10_248
*1272 FILLER_10_265
*1273 FILLER_10_279
*1274 FILLER_10_29
*1275 FILLER_10_291
*1276 FILLER_10_3
*1277 FILLER_10_35
*1278 FILLER_10_52
*1279 FILLER_10_59
*1280 FILLER_10_73
*1281 FILLER_10_80
*1282 FILLER_10_95
*1283 FILLER_11_104
*1284 FILLER_11_117
*1285 FILLER_11_14
*1286 FILLER_11_142
*1287 FILLER_11_158
*1288 FILLER_11_166
*1289 FILLER_11_179
*1290 FILLER_11_195
*1291 FILLER_11_202
*1292 FILLER_11_214
*1293 FILLER_11_222
*1294 FILLER_11_237
*1295 FILLER_11_244
*1296 FILLER_11_255
*1297 FILLER_11_271
*1298 FILLER_11_279
*1299 FILLER_11_289
*1300 FILLER_11_297
*1301 FILLER_11_36
*1302 FILLER_11_45
*1303 FILLER_11_52
*1304 FILLER_11_6
*1305 FILLER_11_78
*1306 FILLER_11_86
*1307 FILLER_12_117
*1308 FILLER_12_125
*1309 FILLER_12_136
*1310 FILLER_12_160
*1311 FILLER_12_168
*1312 FILLER_12_181
*1313 FILLER_12_192
*1314 FILLER_12_204
*1315 FILLER_12_208
*1316 FILLER_12_219
*1317 FILLER_12_235
*1318 FILLER_12_24
*1319 FILLER_12_246
*1320 FILLER_12_256
*1321 FILLER_12_272
*1322 FILLER_12_288
*1323 FILLER_12_295
*1324 FILLER_12_3
*1325 FILLER_12_33
*1326 FILLER_12_37
*1327 FILLER_12_42
*1328 FILLER_12_46
*1329 FILLER_12_57
*1330 FILLER_12_68
*1331 FILLER_12_80
*1332 FILLER_12_89
*1333 FILLER_12_97
*1334 FILLER_13_103
*1335 FILLER_13_111
*1336 FILLER_13_113
*1337 FILLER_13_119
*1338 FILLER_13_135
*1339 FILLER_13_143
*1340 FILLER_13_156
*1341 FILLER_13_164
*1342 FILLER_13_169
*1343 FILLER_13_185
*1344 FILLER_13_191
*1345 FILLER_13_198
*1346 FILLER_13_214
*1347 FILLER_13_22
*1348 FILLER_13_222
*1349 FILLER_13_237
*1350 FILLER_13_243
*1351 FILLER_13_253
*1352 FILLER_13_271
*1353 FILLER_13_279
*1354 FILLER_13_28
*1355 FILLER_13_281
*1356 FILLER_13_295
*1357 FILLER_13_3
*1358 FILLER_13_46
*1359 FILLER_13_54
*1360 FILLER_13_66
*1361 FILLER_13_70
*1362 FILLER_13_75
*1363 FILLER_13_89
*1364 FILLER_14_103
*1365 FILLER_14_115
*1366 FILLER_14_123
*1367 FILLER_14_128
*1368 FILLER_14_136
*1369 FILLER_14_141
*1370 FILLER_14_147
*1371 FILLER_14_15
*1372 FILLER_14_161
*1373 FILLER_14_179
*1374 FILLER_14_192
*1375 FILLER_14_207
*1376 FILLER_14_215
*1377 FILLER_14_228
*1378 FILLER_14_244
*1379 FILLER_14_261
*1380 FILLER_14_27
*1381 FILLER_14_279
*1382 FILLER_14_29
*1383 FILLER_14_290
*1384 FILLER_14_298
*1385 FILLER_14_3
*1386 FILLER_14_53
*1387 FILLER_14_57
*1388 FILLER_14_80
*1389 FILLER_14_85
*1390 FILLER_14_89
*1391 FILLER_14_96
*1392 FILLER_15_101
*1393 FILLER_15_108
*1394 FILLER_15_113
*1395 FILLER_15_118
*1396 FILLER_15_127
*1397 FILLER_15_143
*1398 FILLER_15_147
*1399 FILLER_15_152
*1400 FILLER_15_160
*1401 FILLER_15_176
*1402 FILLER_15_18
*1403 FILLER_15_184
*1404 FILLER_15_198
*1405 FILLER_15_206
*1406 FILLER_15_220
*1407 FILLER_15_229
*1408 FILLER_15_245
*1409 FILLER_15_26
*1410 FILLER_15_261
*1411 FILLER_15_272
*1412 FILLER_15_281
*1413 FILLER_15_295
*1414 FILLER_15_31
*1415 FILLER_15_38
*1416 FILLER_15_45
*1417 FILLER_15_52
*1418 FILLER_15_57
*1419 FILLER_15_6
*1420 FILLER_15_62
*1421 FILLER_15_74
*1422 FILLER_15_86
*1423 FILLER_15_93
*1424 FILLER_15_97
*1425 FILLER_16_117
*1426 FILLER_16_125
*1427 FILLER_16_136
*1428 FILLER_16_145
*1429 FILLER_16_161
*1430 FILLER_16_174
*1431 FILLER_16_182
*1432 FILLER_16_19
*1433 FILLER_16_192
*1434 FILLER_16_209
*1435 FILLER_16_213
*1436 FILLER_16_227
*1437 FILLER_16_239
*1438 FILLER_16_243
*1439 FILLER_16_248
*1440 FILLER_16_263
*1441 FILLER_16_27
*1442 FILLER_16_274
*1443 FILLER_16_284
*1444 FILLER_16_29
*1445 FILLER_16_295
*1446 FILLER_16_60
*1447 FILLER_16_74
*1448 FILLER_16_82
*1449 FILLER_16_85
*1450 FILLER_16_89
*1451 FILLER_16_96
*1452 FILLER_17_102
*1453 FILLER_17_110
*1454 FILLER_17_118
*1455 FILLER_17_126
*1456 FILLER_17_132
*1457 FILLER_17_140
*1458 FILLER_17_15
*1459 FILLER_17_155
*1460 FILLER_17_164
*1461 FILLER_17_181
*1462 FILLER_17_197
*1463 FILLER_17_213
*1464 FILLER_17_220
*1465 FILLER_17_237
*1466 FILLER_17_248
*1467 FILLER_17_259
*1468 FILLER_17_263
*1469 FILLER_17_276
*1470 FILLER_17_293
*1471 FILLER_17_3
*1472 FILLER_17_34
*1473 FILLER_17_46
*1474 FILLER_17_52
*1475 FILLER_17_63
*1476 FILLER_17_76
*1477 FILLER_17_84
*1478 FILLER_17_95
*1479 FILLER_18_100
*1480 FILLER_18_117
*1481 FILLER_18_125
*1482 FILLER_18_131
*1483 FILLER_18_136
*1484 FILLER_18_141
*1485 FILLER_18_151
*1486 FILLER_18_159
*1487 FILLER_18_165
*1488 FILLER_18_169
*1489 FILLER_18_177
*1490 FILLER_18_188
*1491 FILLER_18_19
*1492 FILLER_18_201
*1493 FILLER_18_217
*1494 FILLER_18_225
*1495 FILLER_18_243
*1496 FILLER_18_251
*1497 FILLER_18_265
*1498 FILLER_18_27
*1499 FILLER_18_281
*1500 FILLER_18_285
*1501 FILLER_18_29
*1502 FILLER_18_293
*1503 FILLER_18_41
*1504 FILLER_18_65
*1505 FILLER_18_80
*1506 FILLER_18_94
*1507 FILLER_19_106
*1508 FILLER_19_113
*1509 FILLER_19_120
*1510 FILLER_19_128
*1511 FILLER_19_139
*1512 FILLER_19_151
*1513 FILLER_19_164
*1514 FILLER_19_169
*1515 FILLER_19_173
*1516 FILLER_19_186
*1517 FILLER_19_197
*1518 FILLER_19_204
*1519 FILLER_19_220
*1520 FILLER_19_237
*1521 FILLER_19_24
*1522 FILLER_19_253
*1523 FILLER_19_268
*1524 FILLER_19_276
*1525 FILLER_19_288
*1526 FILLER_19_295
*1527 FILLER_19_3
*1528 FILLER_19_32
*1529 FILLER_19_44
*1530 FILLER_19_57
*1531 FILLER_19_76
*1532 FILLER_19_89
*1533 FILLER_19_93
*1534 FILLER_19_97
*1535 FILLER_1_107
*1536 FILLER_1_111
*1537 FILLER_1_125
*1538 FILLER_1_133
*1539 FILLER_1_146
*1540 FILLER_1_164
*1541 FILLER_1_169
*1542 FILLER_1_184
*1543 FILLER_1_19
*1544 FILLER_1_204
*1545 FILLER_1_220
*1546 FILLER_1_237
*1547 FILLER_1_253
*1548 FILLER_1_267
*1549 FILLER_1_27
*1550 FILLER_1_275
*1551 FILLER_1_279
*1552 FILLER_1_281
*1553 FILLER_1_289
*1554 FILLER_1_297
*1555 FILLER_1_32
*1556 FILLER_1_52
*1557 FILLER_1_57
*1558 FILLER_1_86
*1559 FILLER_1_94
*1560 FILLER_20_101
*1561 FILLER_20_109
*1562 FILLER_20_120
*1563 FILLER_20_127
*1564 FILLER_20_136
*1565 FILLER_20_141
*1566 FILLER_20_152
*1567 FILLER_20_162
*1568 FILLER_20_178
*1569 FILLER_20_188
*1570 FILLER_20_201
*1571 FILLER_20_205
*1572 FILLER_20_218
*1573 FILLER_20_226
*1574 FILLER_20_239
*1575 FILLER_20_24
*1576 FILLER_20_247
*1577 FILLER_20_251
*1578 FILLER_20_258
*1579 FILLER_20_265
*1580 FILLER_20_281
*1581 FILLER_20_292
*1582 FILLER_20_298
*1583 FILLER_20_3
*1584 FILLER_20_32
*1585 FILLER_20_55
*1586 FILLER_20_79
*1587 FILLER_20_83
*1588 FILLER_21_101
*1589 FILLER_21_108
*1590 FILLER_21_113
*1591 FILLER_21_125
*1592 FILLER_21_134
*1593 FILLER_21_14
*1594 FILLER_21_143
*1595 FILLER_21_156
*1596 FILLER_21_164
*1597 FILLER_21_176
*1598 FILLER_21_184
*1599 FILLER_21_202
*1600 FILLER_21_220
*1601 FILLER_21_225
*1602 FILLER_21_229
*1603 FILLER_21_242
*1604 FILLER_21_260
*1605 FILLER_21_276
*1606 FILLER_21_293
*1607 FILLER_21_36
*1608 FILLER_21_44
*1609 FILLER_21_57
*1610 FILLER_21_6
*1611 FILLER_21_61
*1612 FILLER_21_65
*1613 FILLER_21_69
*1614 FILLER_21_93
*1615 FILLER_22_111
*1616 FILLER_22_125
*1617 FILLER_22_133
*1618 FILLER_22_139
*1619 FILLER_22_149
*1620 FILLER_22_15
*1621 FILLER_22_157
*1622 FILLER_22_171
*1623 FILLER_22_179
*1624 FILLER_22_192
*1625 FILLER_22_204
*1626 FILLER_22_215
*1627 FILLER_22_227
*1628 FILLER_22_243
*1629 FILLER_22_251
*1630 FILLER_22_265
*1631 FILLER_22_269
*1632 FILLER_22_27
*1633 FILLER_22_280
*1634 FILLER_22_29
*1635 FILLER_22_291
*1636 FILLER_22_3
*1637 FILLER_22_49
*1638 FILLER_22_65
*1639 FILLER_22_80
*1640 FILLER_22_85
*1641 FILLER_22_89
*1642 FILLER_22_99
*1643 FILLER_23_102
*1644 FILLER_23_110
*1645 FILLER_23_122
*1646 FILLER_23_130
*1647 FILLER_23_143
*1648 FILLER_23_150
*1649 FILLER_23_164
*1650 FILLER_23_173
*1651 FILLER_23_18
*1652 FILLER_23_189
*1653 FILLER_23_209
*1654 FILLER_23_220
*1655 FILLER_23_237
*1656 FILLER_23_255
*1657 FILLER_23_259
*1658 FILLER_23_272
*1659 FILLER_23_281
*1660 FILLER_23_295
*1661 FILLER_23_30
*1662 FILLER_23_42
*1663 FILLER_23_54
*1664 FILLER_23_57
*1665 FILLER_23_6
*1666 FILLER_23_65
*1667 FILLER_23_70
*1668 FILLER_23_77
*1669 FILLER_23_90
*1670 FILLER_24_101
*1671 FILLER_24_108
*1672 FILLER_24_118
*1673 FILLER_24_129
*1674 FILLER_24_136
*1675 FILLER_24_151
*1676 FILLER_24_162
*1677 FILLER_24_178
*1678 FILLER_24_192
*1679 FILLER_24_197
*1680 FILLER_24_20
*1681 FILLER_24_208
*1682 FILLER_24_224
*1683 FILLER_24_238
*1684 FILLER_24_246
*1685 FILLER_24_253
*1686 FILLER_24_263
*1687 FILLER_24_279
*1688 FILLER_24_29
*1689 FILLER_24_294
*1690 FILLER_24_298
*1691 FILLER_24_3
*1692 FILLER_24_41