*SPEF "ieee 1481-1999"
*DESIGN "tomkeddie_top_tto"
*DATE "11:11:11 Fri 11 11, 1111"
*VENDOR "OpenRCX"
*PROGRAM "Parallel Extraction"
*VERSION "1.0"
*DESIGN_FLOW "NAME_SCOPE LOCAL" "PIN_CAP NONE"
*DIVIDER /
*DELIMITER :
*BUS_DELIMITER []
*T_UNIT 1 NS
*C_UNIT 1 PF
*R_UNIT 1 OHM
*L_UNIT 1 HENRY

*NAME_MAP
*1 io_in[0]
*2 io_in[1]
*3 io_in[2]
*4 io_in[3]
*5 io_in[4]
*6 io_in[5]
*7 io_in[6]
*8 io_in[7]
*9 io_out[0]
*10 io_out[1]
*11 io_out[2]
*12 io_out[3]
*13 io_out[4]
*14 io_out[5]
*15 net4
*16 net5
*19 _000_
*20 _001_
*21 _002_
*22 _003_
*23 _004_
*24 _005_
*25 _006_
*26 _007_
*27 _008_
*28 _009_
*29 _010_
*30 _011_
*31 _012_
*32 _013_
*33 _014_
*34 _015_
*35 _016_
*36 _017_
*37 _018_
*38 _019_
*39 _020_
*40 _021_
*41 _022_
*42 _023_
*43 _024_
*44 _025_
*45 _026_
*46 _027_
*47 _028_
*48 _029_
*49 _030_
*50 _031_
*51 _032_
*52 _033_
*53 _034_
*54 _035_
*55 _036_
*56 _037_
*57 _038_
*58 _039_
*59 _040_
*60 _041_
*61 _042_
*62 _043_
*63 _044_
*64 _045_
*65 _046_
*66 _047_
*67 _048_
*68 _049_
*69 _050_
*70 _051_
*71 _052_
*72 _053_
*73 _054_
*74 _055_
*75 _056_
*76 _057_
*77 _058_
*78 _059_
*79 _060_
*80 _061_
*81 _062_
*82 _063_
*83 _064_
*84 _065_
*85 _066_
*86 _067_
*87 _068_
*88 _069_
*89 _070_
*90 _071_
*91 _072_
*92 _073_
*93 _074_
*94 _075_
*95 _076_
*96 _077_
*97 _078_
*98 _079_
*99 _080_
*100 _081_
*101 _082_
*102 _083_
*103 _084_
*104 _085_
*105 _086_
*106 _087_
*107 _088_
*108 _089_
*109 _090_
*110 _091_
*111 _092_
*112 _093_
*113 _094_
*114 _095_
*115 _096_
*116 _097_
*117 _098_
*118 _099_
*119 _100_
*120 _101_
*121 _102_
*122 _103_
*123 _104_
*124 _105_
*125 _106_
*126 _107_
*127 _108_
*128 _109_
*129 _110_
*130 _111_
*131 _112_
*132 _113_
*133 _114_
*134 _115_
*135 _116_
*136 _117_
*137 _118_
*138 _119_
*139 _120_
*140 _121_
*141 _122_
*142 _123_
*143 _124_
*144 _125_
*145 _126_
*146 _127_
*147 _128_
*148 _129_
*149 _130_
*150 _131_
*151 _132_
*152 _133_
*153 _134_
*154 _135_
*155 _136_
*156 _137_
*157 _138_
*158 _139_
*159 _140_
*160 _141_
*161 _142_
*162 _143_
*163 _144_
*164 _145_
*165 _146_
*166 _147_
*167 _148_
*168 _149_
*169 _150_
*170 _151_
*171 _152_
*172 _153_
*173 _154_
*174 _155_
*175 _156_
*176 _157_
*177 _158_
*178 _159_
*179 _160_
*180 _161_
*181 _162_
*182 _163_
*183 _164_
*184 _165_
*185 _166_
*186 _167_
*187 _168_
*188 _169_
*189 _170_
*190 _171_
*191 _172_
*192 _173_
*193 _174_
*194 _175_
*195 _176_
*196 _177_
*197 _178_
*198 _179_
*199 _180_
*200 _181_
*201 _182_
*202 _183_
*203 _184_
*204 _185_
*205 _186_
*206 _187_
*207 _188_
*208 _189_
*209 _190_
*210 _191_
*211 _192_
*212 _193_
*213 _194_
*214 _195_
*215 _196_
*216 _197_
*217 _198_
*218 _199_
*219 _200_
*220 _201_
*221 _202_
*222 _203_
*223 _204_
*224 _205_
*225 _206_
*226 _207_
*227 _208_
*228 _209_
*229 _210_
*230 _211_
*231 _212_
*232 _213_
*233 _214_
*234 _215_
*235 _216_
*236 _217_
*237 _218_
*238 _219_
*239 _220_
*240 _221_
*241 _222_
*242 _223_
*243 _224_
*244 _225_
*245 _226_
*246 _227_
*247 _228_
*248 _229_
*249 _230_
*250 _231_
*251 _232_
*252 _233_
*253 _234_
*254 _235_
*255 _236_
*256 _237_
*257 _238_
*258 _239_
*259 _240_
*260 _241_
*261 _242_
*262 _243_
*263 _244_
*264 _245_
*265 _246_
*266 _247_
*267 _248_
*268 _249_
*269 _250_
*270 _251_
*271 _252_
*272 _253_
*273 _254_
*274 _255_
*275 _256_
*276 _257_
*277 _258_
*278 _259_
*279 _260_
*280 _261_
*281 _262_
*282 _263_
*283 _264_
*284 _265_
*285 _266_
*286 _267_
*287 _268_
*288 _269_
*289 _270_
*290 _271_
*291 _272_
*292 _273_
*293 _274_
*294 _275_
*295 _276_
*296 _277_
*297 _278_
*298 _279_
*299 _280_
*300 _281_
*301 _282_
*302 _283_
*303 _284_
*304 _285_
*305 _286_
*306 _287_
*307 _288_
*308 _289_
*309 _290_
*310 _291_
*311 _292_
*312 _293_
*313 _294_
*314 _295_
*315 _296_
*316 _297_
*317 _298_
*318 _299_
*319 _300_
*320 _301_
*321 _302_
*322 _303_
*323 _304_
*324 _305_
*325 _306_
*326 _307_
*327 _308_
*328 _309_
*329 _310_
*330 _311_
*331 _312_
*332 _313_
*333 _314_
*334 _315_
*335 _316_
*336 _317_
*337 _318_
*338 _319_
*339 _320_
*340 _321_
*341 _322_
*342 _323_
*343 _324_
*344 _325_
*345 _326_
*346 _327_
*347 _328_
*348 _329_
*349 _330_
*350 _331_
*351 _332_
*352 _333_
*353 _334_
*354 _335_
*355 _336_
*356 _337_
*357 _338_
*358 _339_
*359 _340_
*360 _341_
*361 _342_
*362 _343_
*363 _344_
*364 _345_
*365 _346_
*366 _347_
*367 _348_
*368 _349_
*369 _350_
*370 _351_
*371 _352_
*372 _353_
*373 _354_
*374 _355_
*375 _356_
*376 _357_
*377 _358_
*378 _359_
*379 _360_
*380 _361_
*381 _362_
*382 _363_
*383 _364_
*384 _365_
*385 _366_
*386 _367_
*387 _368_
*388 _369_
*389 _370_
*390 _371_
*391 _372_
*392 _373_
*393 _374_
*394 _375_
*395 _376_
*396 _377_
*397 _378_
*398 _379_
*399 _380_
*400 _381_
*401 _382_
*402 _383_
*403 _384_
*404 _385_
*405 _386_
*406 _387_
*407 _388_
*408 _389_
*409 _390_
*410 _391_
*411 _392_
*412 _393_
*413 _394_
*414 _395_
*415 _396_
*416 _397_
*417 _398_
*418 _399_
*419 _400_
*420 _401_
*421 _402_
*422 _403_
*423 _404_
*424 _405_
*425 _406_
*426 _407_
*427 _408_
*428 _409_
*429 _410_
*430 _411_
*431 _412_
*432 _413_
*433 _414_
*434 _415_
*435 _416_
*436 _417_
*437 _418_
*438 _419_
*439 _420_
*440 _421_
*441 _422_
*442 _423_
*443 _424_
*444 _425_
*445 _426_
*446 _427_
*447 _428_
*448 _429_
*449 _430_
*450 _431_
*451 _432_
*452 _433_
*453 _434_
*454 _435_
*455 _436_
*456 _437_
*457 _438_
*458 _439_
*459 _440_
*460 _441_
*461 _442_
*462 _443_
*463 _444_
*464 _445_
*465 _446_
*466 _447_
*467 _448_
*468 _449_
*469 _450_
*470 _451_
*471 _452_
*472 _453_
*473 _454_
*474 _455_
*475 _456_
*476 _457_
*477 _458_
*478 _459_
*479 _460_
*480 _461_
*481 _462_
*482 _463_
*483 _464_
*484 clknet_0_io_in[0]
*485 clknet_2_0__leaf_io_in[0]
*486 clknet_2_1__leaf_io_in[0]
*487 clknet_2_2__leaf_io_in[0]
*488 clknet_2_3__leaf_io_in[0]
*489 lcd\.en
*490 lcd\.hour_inc_1d
*491 lcd\.idx\[0\]
*492 lcd\.idx\[1\]
*493 lcd\.idx\[2\]
*494 lcd\.idx\[3\]
*495 lcd\.idx\[4\]
*496 lcd\.init_state\[0\]
*497 lcd\.init_state\[1\]
*498 lcd\.init_state\[2\]
*499 lcd\.init_state\[3\]
*500 lcd\.init_state\[4\]
*501 lcd\.init_state\[5\]
*502 lcd\.min_inc_1d
*503 lcd\.rs
*504 lcd\.time_divider\[0\]
*505 lcd\.time_divider\[10\]
*506 lcd\.time_divider\[11\]
*507 lcd\.time_divider\[12\]
*508 lcd\.time_divider\[13\]
*509 lcd\.time_divider\[14\]
*510 lcd\.time_divider\[15\]
*511 lcd\.time_divider\[1\]
*512 lcd\.time_divider\[2\]
*513 lcd\.time_divider\[3\]
*514 lcd\.time_divider\[4\]
*515 lcd\.time_divider\[5\]
*516 lcd\.time_divider\[6\]
*517 lcd\.time_divider\[7\]
*518 lcd\.time_divider\[8\]
*519 lcd\.time_divider\[9\]
*520 lcd\.time_hours\[0\]
*521 lcd\.time_hours\[1\]
*522 lcd\.time_hours\[2\]
*523 lcd\.time_hours\[3\]
*524 lcd\.time_hours\[4\]
*525 lcd\.time_minutes\[0\]
*526 lcd\.time_minutes\[1\]
*527 lcd\.time_minutes\[2\]
*528 lcd\.time_minutes\[3\]
*529 lcd\.time_minutes\[4\]
*530 lcd\.time_minutes\[5\]
*531 lcd\.time_seconds\[0\]
*532 lcd\.time_seconds\[1\]
*533 lcd\.time_seconds\[2\]
*534 lcd\.time_seconds\[3\]
*535 lcd\.time_seconds\[4\]
*536 lcd\.time_seconds\[5\]
*537 net1
*538 net2
*539 net3
*540 ANTENNA_0
*541 ANTENNA_1
*542 ANTENNA_2
*543 ANTENNA_3
*544 FILLER_0_101
*545 FILLER_0_109
*546 FILLER_0_129
*547 FILLER_0_137
*548 FILLER_0_141
*549 FILLER_0_153
*550 FILLER_0_165
*551 FILLER_0_169
*552 FILLER_0_181
*553 FILLER_0_193
*554 FILLER_0_197
*555 FILLER_0_209
*556 FILLER_0_221
*557 FILLER_0_225
*558 FILLER_0_237
*559 FILLER_0_24
*560 FILLER_0_249
*561 FILLER_0_253
*562 FILLER_0_265
*563 FILLER_0_277
*564 FILLER_0_281
*565 FILLER_0_29
*566 FILLER_0_293
*567 FILLER_0_3
*568 FILLER_0_48
*569 FILLER_0_57
*570 FILLER_0_7
*571 FILLER_0_74
*572 FILLER_0_82
*573 FILLER_10_101
*574 FILLER_10_109
*575 FILLER_10_122
*576 FILLER_10_131
*577 FILLER_10_139
*578 FILLER_10_141
*579 FILLER_10_153
*580 FILLER_10_159
*581 FILLER_10_167
*582 FILLER_10_179
*583 FILLER_10_19
*584 FILLER_10_191
*585 FILLER_10_195
*586 FILLER_10_197
*587 FILLER_10_204
*588 FILLER_10_214
*589 FILLER_10_226
*590 FILLER_10_238
*591 FILLER_10_250
*592 FILLER_10_253
*593 FILLER_10_265
*594 FILLER_10_27
*595 FILLER_10_277
*596 FILLER_10_289
*597 FILLER_10_29
*598 FILLER_10_297
*599 FILLER_10_46
*600 FILLER_10_66
*601 FILLER_10_78
*602 FILLER_11_100
*603 FILLER_11_105
*604 FILLER_11_111
*605 FILLER_11_117
*606 FILLER_11_131
*607 FILLER_11_143
*608 FILLER_11_15
*609 FILLER_11_155
*610 FILLER_11_167
*611 FILLER_11_175
*612 FILLER_11_187
*613 FILLER_11_199
*614 FILLER_11_207
*615 FILLER_11_213
*616 FILLER_11_221
*617 FILLER_11_225
*618 FILLER_11_237
*619 FILLER_11_249
*620 FILLER_11_261
*621 FILLER_11_273
*622 FILLER_11_279
*623 FILLER_11_281
*624 FILLER_11_293
*625 FILLER_11_3
*626 FILLER_11_32
*627 FILLER_11_52
*628 FILLER_11_57
*629 FILLER_11_69
*630 FILLER_11_75
*631 FILLER_11_92
*632 FILLER_12_101
*633 FILLER_12_112
*634 FILLER_12_118
*635 FILLER_12_126
*636 FILLER_12_138
*637 FILLER_12_141
*638 FILLER_12_147
*639 FILLER_12_151
*640 FILLER_12_163
*641 FILLER_12_175
*642 FILLER_12_181
*643 FILLER_12_190
*644 FILLER_12_197
*645 FILLER_12_202
*646 FILLER_12_206
*647 FILLER_12_215
*648 FILLER_12_227
*649 FILLER_12_234
*650 FILLER_12_24
*651 FILLER_12_246
*652 FILLER_12_253
*653 FILLER_12_265
*654 FILLER_12_277
*655 FILLER_12_289
*656 FILLER_12_29
*657 FILLER_12_297
*658 FILLER_12_3
*659 FILLER_12_41
*660 FILLER_12_60
*661 FILLER_12_7
*662 FILLER_12_80
*663 FILLER_13_106
*664 FILLER_13_113
*665 FILLER_13_119
*666 FILLER_13_127
*667 FILLER_13_136
*668 FILLER_13_148
*669 FILLER_13_153
*670 FILLER_13_162
*671 FILLER_13_169
*672 FILLER_13_184
*673 FILLER_13_192
*674 FILLER_13_20
*675 FILLER_13_204
*676 FILLER_13_216
*677 FILLER_13_225
*678 FILLER_13_237
*679 FILLER_13_24
*680 FILLER_13_249
*681 FILLER_13_261
*682 FILLER_13_273
*683 FILLER_13_279
*684 FILLER_13_281
*685 FILLER_13_293
*686 FILLER_13_52
*687 FILLER_13_57
*688 FILLER_13_74
*689 FILLER_13_94
*690 FILLER_14_101
*691 FILLER_14_109
*692 FILLER_14_122
*693 FILLER_14_134
*694 FILLER_14_141
*695 FILLER_14_153
*696 FILLER_14_165
*697 FILLER_14_177
*698 FILLER_14_189
*699 FILLER_14_195
*700 FILLER_14_197
*701 FILLER_14_20
*702 FILLER_14_209
*703 FILLER_14_215
*704 FILLER_14_227
*705 FILLER_14_239
*706 FILLER_14_248
*707 FILLER_14_253
*708 FILLER_14_265
*709 FILLER_14_277
*710 FILLER_14_289
*711 FILLER_14_29
*712 FILLER_14_297
*713 FILLER_14_41
*714 FILLER_14_59
*715 FILLER_14_63
*716 FILLER_14_80
*717 FILLER_15_108
*718 FILLER_15_113
*719 FILLER_15_121
*720 FILLER_15_128
*721 FILLER_15_140
*722 FILLER_15_152
*723 FILLER_15_158
*724 FILLER_15_164
*725 FILLER_15_169
*726 FILLER_15_181
*727 FILLER_15_193
*728 FILLER_15_205
*729 FILLER_15_217
*730 FILLER_15_22
*731 FILLER_15_223
*732 FILLER_15_225
*733 FILLER_15_237
*734 FILLER_15_249
*735 FILLER_15_261
*736 FILLER_15_273
*737 FILLER_15_279
*738 FILLER_15_281
*739 FILLER_15_293
*740 FILLER_15_3
*741 FILLER_15_42
*742 FILLER_15_54
*743 FILLER_15_57
*744 FILLER_15_69
*745 FILLER_15_73
*746 FILLER_15_90
*747 FILLER_15_98
*748 FILLER_16_105
*749 FILLER_16_117
*750 FILLER_16_129
*751 FILLER_16_137
*752 FILLER_16_15
*753 FILLER_16_150
*754 FILLER_16_156
*755 FILLER_16_165
*756 FILLER_16_173
*757 FILLER_16_179
*758 FILLER_16_186
*759 FILLER_16_194
*760 FILLER_16_197
*761 FILLER_16_209
*762 FILLER_16_221
*763 FILLER_16_233
*764 FILLER_16_245
*765 FILLER_16_251
*766 FILLER_16_253
*767 FILLER_16_265
*768 FILLER_16_27
*769 FILLER_16_277
*770 FILLER_16_289
*771 FILLER_16_29
*772 FILLER_16_297
*773 FILLER_16_3
*774 FILLER_16_41
*775 FILLER_16_53
*776 FILLER_16_62
*777 FILLER_16_69
*778 FILLER_16_81
*779 FILLER_16_85
*780 FILLER_16_97
*781 FILLER_17_11
*782 FILLER_17_111
*783 FILLER_17_113
*784 FILLER_17_121
*785 FILLER_17_126
*786 FILLER_17_138
*787 FILLER_17_150
*788 FILLER_17_162
*789 FILLER_17_169
*790 FILLER_17_17
*791 FILLER_17_181
*792 FILLER_17_192
*793 FILLER_17_204
*794 FILLER_17_216
*795 FILLER_17_225
*796 FILLER_17_237
*797 FILLER_17_24
*798 FILLER_17_249
*799 FILLER_17_255
*800 FILLER_17_259
*801 FILLER_17_271
*802 FILLER_17_279
*803 FILLER_17_281
*804 FILLER_17_293
*805 FILLER_17_3
*806 FILLER_17_36
*807 FILLER_17_44
*808 FILLER_17_50
*809 FILLER_17_65
*810 FILLER_17_7
*811 FILLER_17_73
*812 FILLER_17_79
*813 FILLER_17_89
*814 FILLER_17_99
*815 FILLER_18_109
*816 FILLER_18_115
*817 FILLER_18_12
*818 FILLER_18_127
*819 FILLER_18_139
*820 FILLER_18_144
*821 FILLER_18_156
*822 FILLER_18_168
*823 FILLER_18_180
*824 FILLER_18_191
*825 FILLER_18_195
*826 FILLER_18_197
*827 FILLER_18_209
*828 FILLER_18_221
*829 FILLER_18_233
*830 FILLER_18_24
*831 FILLER_18_245
*832 FILLER_18_251
*833 FILLER_18_253
*834 FILLER_18_262
*835 FILLER_18_274
*836 FILLER_18_286
*837 FILLER_18_298
*838 FILLER_18_3
*839 FILLER_18_32
*840 FILLER_18_45
*841 FILLER_18_63
*842 FILLER_18_71
*843 FILLER_18_78
*844 FILLER_18_88
*845 FILLER_18_97
*846 FILLER_19_104
*847 FILLER_19_116
*848 FILLER_19_12
*849 FILLER_19_123
*850 FILLER_19_130
*851 FILLER_19_139
*852 FILLER_19_151
*853 FILLER_19_155
*854 FILLER_19_160
*855 FILLER_19_176
*856 FILLER_19_182
*857 FILLER_19_187
*858 FILLER_19_19
*859 FILLER_19_199
*860 FILLER_19_211
*861 FILLER_19_223
*862 FILLER_19_225
*863 FILLER_19_237
*864 FILLER_19_249
*865 FILLER_19_261
*866 FILLER_19_27
*867 FILLER_19_276
*868 FILLER_19_281
*869 FILLER_19_293
*870 FILLER_19_3
*871 FILLER_19_39
*872 FILLER_19_52
*873 FILLER_19_57
*874 FILLER_19_72
*875 FILLER_19_83
*876 FILLER_19_91
*877 FILLER_1_106
*878 FILLER_1_116
*879 FILLER_1_128
*880 FILLER_1_140
*881 FILLER_1_152
*882 FILLER_1_164
*883 FILLER_1_169
*884 FILLER_1_181
*885 FILLER_1_193
*886 FILLER_1_205
*887 FILLER_1_217
*888 FILLER_1_223
*889 FILLER_1_225
*890 FILLER_1_237
*891 FILLER_1_249
*892 FILLER_1_261
*893 FILLER_1_273
*894 FILLER_1_279
*895 FILLER_1_281
*896 FILLER_1_293
*897 FILLER_1_3
*898 FILLER_1_32
*899 FILLER_1_52
*900 FILLER_1_57
*901 FILLER_1_74
*902 FILLER_1_94
*903 FILLER_20_104
*904 FILLER_20_11
*905 FILLER_20_112
*906 FILLER_20_119
*907 FILLER_20_126
*908 FILLER_20_133
*909 FILLER_20_139
*910 FILLER_20_141
*911 FILLER_20_147
*912 FILLER_20_156
*913 FILLER_20_167
*914 FILLER_20_182
*915 FILLER_20_194
*916 FILLER_20_204
*917 FILLER_20_21
*918 FILLER_20_216
*919 FILLER_20_228
*920 FILLER_20_240
*921 FILLER_20_253
*922 FILLER_20_265
*923 FILLER_20_27
*924 FILLER_20_277
*925 FILLER_20_289
*926 FILLER_20_29
*927 FILLER_20_297
*928 FILLER_20_3
*929 FILLER_20_33
*930 FILLER_20_38
*931 FILLER_20_52
*932 FILLER_20_62
*933 FILLER_20_7
*934 FILLER_20_70
*935 FILLER_20_78
*936 FILLER_20_95
*937 FILLER_21_108
*938 FILLER_21_113
*939 FILLER_21_119
*940 FILLER_21_128
*941 FILLER_21_136
*942 FILLER_21_140
*943 FILLER_21_146
*944 FILLER_21_150
*945 FILLER_21_158
*946 FILLER_21_163
*947 FILLER_21_167
*948 FILLER_21_169
*949 FILLER_21_181
*950 FILLER_21_19
*951 FILLER_21_193
*952 FILLER_21_205
*953 FILLER_21_209
*954 FILLER_21_218
*955 FILLER_21_232
*956 FILLER_21_244
*957 FILLER_21_256
*958 FILLER_21_268
*959 FILLER_21_281
*960 FILLER_21_293
*961 FILLER_21_3
*962 FILLER_21_33
*963 FILLER_21_37
*964 FILLER_21_41
*965 FILLER_21_52
*966 FILLER_21_67
*967 FILLER_21_77
*968 FILLER_21_81
*969 FILLER_21_87
*970 FILLER_21_9
*971 FILLER_21_93
*972 FILLER_21_99
*973 FILLER_22_102
*974 FILLER_22_11
*975 FILLER_22_113
*976 FILLER_22_120
*977 FILLER_22_132
*978 FILLER_22_141
*979 FILLER_22_149
*980 FILLER_22_161
*981 FILLER_22_17
*982 FILLER_22_173
*983 FILLER_22_179
*984 FILLER_22_188
*985 FILLER_22_197
*986 FILLER_22_209
*987 FILLER_22_213
*988 FILLER_22_221
*989 FILLER_22_227
*990 FILLER_22_234
*991 FILLER_22_24
*992 FILLER_22_246
*993 FILLER_22_253
*994 FILLER_22_265
*995 FILLER_22_277
*996 FILLER_22_289
*997 FILLER_22_29
*998 FILLER_22_297
*999 FILLER_22_3
*1000 FILLER_22_38
*1001 FILLER_22_50
*1002 FILLER_22_58
*1003 FILLER_22_72
*1004 FILLER_22_85
*1005 FILLER_22_97
*1006 FILLER_23_101
*1007 FILLER_23_107
*1008 FILLER_23_111
*1009 FILLER_23_118
*1010 FILLER_23_127
*1011 FILLER_23_13
*1012 FILLER_23_134
*1013 FILLER_23_140
*1014 FILLER_23_150
*1015 FILLER_23_162
*1016 FILLER_23_169
*1017 FILLER_23_177
*1018 FILLER_23_184
*1019 FILLER_23_196
*1020 FILLER_23_210
*1021 FILLER_23_222
*1022 FILLER_23_225
*1023 FILLER_23_237
*1024 FILLER_23_24
*1025 FILLER_23_249
*1026 FILLER_23_253
*1027 FILLER_23_265
*1028 FILLER_23_277
*1029 FILLER_23_281
*1030 FILLER_23_293
*1031 FILLER_23_3
*1032 FILLER_23_38
*1033 FILLER_23_52
*1034 FILLER_23_63
*1035 FILLER_23_71
*1036 FILLER_23_82
*1037 FILLER_23_93
*1038 FILLER_24_103
*1039 FILLER_24_111
*1040 FILLER_24_122
*1041 FILLER_24_136
*1042 FILLER_24_14
*1043 FILLER_24_141
*1044 FILLER_24_148
*1045 FILLER_24_160
*1046 FILLER_24_168
*1047 FILLER_24_174
*1048 FILLER_24_178
*1049 FILLER_24_184
*1050 FILLER_24_200
*1051 FILLER_24_212
*1052 FILLER_24_226
*1053 FILLER_24_234
*1054 FILLER_24_24
*1055 FILLER_24_244
*1056 FILLER_24_253
*1057 FILLER_24_265
*1058 FILLER_24_277
*1059 FILLER_24_289
*1060 FILLER_24_297
*1061 FILLER_24_37
*1062 FILLER_24_41
*1063 FILLER_24_46
*1064 FILLER_24_54
*1065 FILLER_24_6
*1066 FILLER_24_61
*1067 FILLER_24_73
*1068 FILLER_24_81
*1069 FILLER_24_94
*1070 FILLER_25_101
*1071 FILLER_25_108
*1072 FILLER_25_118
*1073 FILLER_25_126
*1074 FILLER_25_13
*1075 FILLER_25_134
*1076 FILLER_25_145
*1077 FILLER_25_154
*1078 FILLER_25_158
*1079 FILLER_25_162
*1080 FILLER_25_173
*1081 FILLER_25_182
*1082 FILLER_25_196
*1083 FILLER_25_21
*1084 FILLER_25_210
*1085 FILLER_25_214
*1086 FILLER_25_219
*1087 FILLER_25_223
*1088 FILLER_25_225
*1089 FILLER_25_237
*1090 FILLER_25_249
*1091 FILLER_25_25
*1092 FILLER_25_261
*1093 FILLER_25_273
*1094 FILLER_25_279
*1095 FILLER_25_281
*1096 FILLER_25_293
*1097 FILLER_25_3
*1098 FILLER_25_35
*1099 FILLER_25_47
*1100 FILLER_25_55
*1101 FILLER_25_61
*1102 FILLER_25_71
*1103 FILLER_25_9
*1104 FILLER_25_92
*1105 FILLER_26_106
*1106 FILLER_26_114
*1107 FILLER_26_121
*1108 FILLER_26_128
*1109 FILLER_26_136
*1110 FILLER_26_144
*1111 FILLER_26_152
*1112 FILLER_26_162
*1113 FILLER_26_170
*1114 FILLER_26_178
*1115 FILLER_26_187
*1116 FILLER_26_195
*1117 FILLER_26_197
*1118 FILLER_26_205
*1119 FILLER_26_209
*1120 FILLER_26_21
*1121 FILLER_26_225
*1122 FILLER_26_231
*1123 FILLER_26_237
*1124 FILLER_26_249
*1125 FILLER_26_253
*1126 FILLER_26_265
*1127 FILLER_26_27
*1128 FILLER_26_277
*1129 FILLER_26_289
*1130 FILLER_26_29
*1131 FILLER_26_297
*1132 FILLER_26_3
*1133 FILLER_26_41
*1134 FILLER_26_54
*1135 FILLER_26_60
*1136 FILLER_26_66
*1137 FILLER_26_78
*1138 FILLER_26_93
*1139 FILLER_27_103
*1140 FILLER_27_108
*1141 FILLER_27_113
*1142 FILLER_27_124
*1143 FILLER_27_131
*1144 FILLER_27_143
*1145 FILLER_27_151
*1146 FILLER_27_164
*1147 FILLER_27_175
*1148 FILLER_27_18
*1149 FILLER_27_183
*1150 FILLER_27_193
*1151 FILLER_27_205
*1152 FILLER_27_212
*1153 FILLER_27_225
*1154 FILLER_27_237
*1155 FILLER_27_24
*1156 FILLER_27_249
*1157 FILLER_27_261
*1158 FILLER_27_273
*1159 FILLER_27_279
*1160 FILLER_27_281
*1161 FILLER_27_293
*1162 FILLER_27_31
*1163 FILLER_27_45
*1164 FILLER_27_52
*1165 FILLER_27_6
*1166 FILLER_27_60
*1167 FILLER_27_72
*1168 FILLER_27_80
*1169 FILLER_27_87
*1170 FILLER_27_99
*1171 FILLER_28_108
*1172 FILLER_28_117
*1173 FILLER_28_129
*1174 FILLER_28_137
*1175 FILLER_28_141
*1176 FILLER_28_153
*1177 FILLER_28_165
*1178 FILLER_28_172
*1179 FILLER_28_181
*1180 FILLER_28_192
*1181 FILLER_28_197
*1182 FILLER_28_205
*1183 FILLER_28_21
*1184 FILLER_28_212
*1185 FILLER_28_218
*1186 FILLER_28_224
*1187 FILLER_28_236
*1188 FILLER_28_248
*1189 FILLER_28_253
*1190 FILLER_28_265
*1191 FILLER_28_27
*1192 FILLER_28_277
*1193 FILLER_28_289
*1194 FILLER_28_297
*1195 FILLER_28_3
*1196 FILLER_28_34
*1197 FILLER_28_46
*1198 FILLER_28_58
*1199 FILLER_28_70
*1200 FILLER_28_82
*1201 FILLER_28_85
*1202 FILLER_28_97
*1203 FILLER_29_108
*1204 FILLER_29_113
*1205 FILLER_29_125
*1206 FILLER_29_137
*1207 FILLER_29_15
*1208 FILLER_29_151
*1209 FILLER_29_163
*1210 FILLER_29_167
*1211 FILLER_29_169
*1212 FILLER_29_174
*1213 FILLER_29_182
*1214 FILLER_29_198
*1215 FILLER_29_210
*1216 FILLER_29_222
*1217 FILLER_29_232
*1218 FILLER_29_244
*1219 FILLER_29_25
*1220 FILLER_29_256
*1221 FILLER_29_268
*1222 FILLER_29_281
*1223 FILLER_29_29
*1224 FILLER_29_293
*1225 FILLER_29_3
*1226 FILLER_29_33
*1227 FILLER_29_45
*1228 FILLER_29_53
*1229 FILLER_29_60
*1230 FILLER_29_72
*1231 FILLER_29_84
*1232 FILLER_29_96
*1233 FILLER_2_102
*1234 FILLER_2_114
*1235 FILLER_2_126
*1236 FILLER_2_138
*1237 FILLER_2_141
*1238 FILLER_2_156
*1239 FILLER_2_168
*1240 FILLER_2_180
*1241 FILLER_2_19
*1242 FILLER_2_192
*1243 FILLER_2_197
*1244 FILLER_2_209
*1245 FILLER_2_221
*1246 FILLER_2_233
*1247 FILLER_2_245
*1248 FILLER_2_251
*1249 FILLER_2_253
*1250 FILLER_2_265
*1251 FILLER_2_27
*1252 FILLER_2_277
*1253 FILLER_2_289
*1254 FILLER_2_29
*1255 FILLER_2_297
*1256 FILLER_2_41
*1257 FILLER_2_65
*1258 FILLER_2_77
*1259 FILLER_2_83
*1260 FILLER_30_109
*1261 FILLER_30_121
*1262 FILLER_30_133
*1263 FILLER_30_139
*1264 FILLER_30_141
*1265 FILLER_30_148
*1266 FILLER_30_158
*1267 FILLER_30_176
*1268 FILLER_30_18
*1269 FILLER_30_188
*1270 FILLER_30_197
*1271 FILLER_30_209
*1272 FILLER_30_221
*1273 FILLER_30_233
*1274 FILLER_30_242
*1275 FILLER_30_250
*1276 FILLER_30_253
*1277 FILLER_30_26
*1278 FILLER_30_265
*1279 FILLER_30_277
*1280 FILLER_30_289
*1281 FILLER_30_29
*1282 FILLER_30_297
*1283 FILLER_30_3
*1284 FILLER_30_33
*1285 FILLER_30_39
*1286 FILLER_30_51
*1287 FILLER_30_63
*1288 FILLER_30_67
*1289 FILLER_30_73
*1290 FILLER_30_81
*1291 FILLER_30_85
*1292 FILLER_30_9
*1293 FILLER_30_97
*1294 FILLER_31_100
*1295 FILLER_31_118
*1296 FILLER_31_130
*1297 FILLER_31_140
*1298 FILLER_31_148
*1299 FILLER_31_15
*1300 FILLER_31_160
*1301 FILLER_31_179
*1302 FILLER_31_187
*1303 FILLER_31_200
*1304 FILLER_31_212
*1305 FILLER_31_22
*1306 FILLER_31_225
*1307 FILLER_31_237
*1308 FILLER_31_249
*1309 FILLER_31_261
*1310 FILLER_31_273
*1311 FILLER_31_279
*1312 FILLER_31_28
*1313 FILLER_31_281
*1314 FILLER_31_293
*1315 FILLER_31_34
*1316 FILLER_31_52
*1317 FILLER_31_57
*1318 FILLER_31_68
*1319 FILLER_31_7
*1320 FILLER_31_76
*1321 FILLER_31_88
*1322 FILLER_32_109
*1323 FILLER_32_11
*1324 FILLER_32_121
*1325 FILLER_32_136
*1326 FILLER_32_141
*1327 FILLER_32_152
*1328 FILLER_32_162
*1329 FILLER_32_168
*1330 FILLER_32_173
*1331 FILLER_32_184
*1332 FILLER_32_192
*1333 FILLER_32_197
*1334 FILLER_32_209
*1335 FILLER_32_221
*1336 FILLER_32_233
*1337 FILLER_32_24
*1338 FILLER_32_241
*1339 FILLER_32_245
*1340 FILLER_32_251
*1341 FILLER_32_253
*1342 FILLER_32_260
*1343 FILLER_32_272
*1344 FILLER_32_284
*1345 FILLER_32_296
*1346 FILLER_32_32
*1347 FILLER_32_41
*1348 FILLER_32_53
*1349 FILLER_32_65
*1350 FILLER_32_69
*1351 FILLER_32_73
*1352 FILLER_32_81
*1353 FILLER_32_85
*1354 FILLER_32_97
*1355 FILLER_33_10
*1356 FILLER_33_105
*1357 FILLER_33_111
*1358 FILLER_33_122
*1359 FILLER_33_130
*1360 FILLER_33_134
*1361 FILLER_33_142
*1362 FILLER_33_147
*1363 FILLER_33_151
*1364 FILLER_33_155
*1365 FILLER_33_159
*1366 FILLER_33_164
*1367 FILLER_33_169
*1368 FILLER_33_177
*1369 FILLER_33_18
*1370 FILLER_33_183
*1371 FILLER_33_190
*1372 FILLER_33_202
*1373 FILLER_33_214
*1374 FILLER_33_220
*1375 FILLER_33_225
*1376 FILLER_33_237
*1377 FILLER_33_249
*1378 FILLER_33_261
*1379 FILLER_33_27
*1380 FILLER_33_273
*1381 FILLER_33_279
*1382 FILLER_33_281
*1383 FILLER_33_293
*1384 FILLER_33_3
*1385 FILLER_33_31
*1386 FILLER_33_35
*1387 FILLER_33_45
*1388 FILLER_33_53
*1389 FILLER_33_57
*1390 FILLER_33_64
*1391 FILLER_33_76
*1392 FILLER_33_88
*1393 FILLER_33_93
*1394 FILLER_34_113
*1395 FILLER_34_125
*1396 FILLER_34_137
*1397 FILLER_34_141
*1398 FILLER_34_153
*1399 FILLER_34_168
*1400 FILLER_34_176
*1401 FILLER_34_18
*1402 FILLER_34_183
*1403 FILLER_34_192
*1404 FILLER_34_204
*1405 FILLER_34_220
*1406 FILLER_34_226
*1407 FILLER_34_232
*1408 FILLER_34_241
*1409 FILLER_34_249
*1410 FILLER_34_253
*1411 FILLER_34_26
*1412 FILLER_34_265
*1413 FILLER_34_277
*1414 FILLER_34_289
*1415 FILLER_34_29
*1416 FILLER_34_297
*1417 FILLER_34_3
*1418 FILLER_34_40
*1419 FILLER_34_48
*1420 FILLER_34_59
*1421 FILLER_34_70
*1422 FILLER_34_82
*1423 FILLER_34_85
*1424 FILLER_34_9
*1425 FILLER_34_97
*1426 FILLER_35_111
*1427 FILLER_35_113
*1428 FILLER_35_125
*1429 FILLER_35_137
*1430 FILLER_35_153
*1431 FILLER_35_165
*1432 FILLER_35_169
*1433 FILLER_35_17
*1434 FILLER_35_181
*1435 FILLER_35_193
*1436 FILLER_35_204
*1437 FILLER_35_212
*1438 FILLER_35_219
*1439 FILLER_35_223
*1440 FILLER_35_225
*1441 FILLER_35_234
*1442 FILLER_35_242
*1443 FILLER_35_254
*1444 FILLER_35_266
*1445 FILLER_35_278
*1446 FILLER_35_281
*1447 FILLER_35_29
*1448 FILLER_35_293
*1449 FILLER_35_3
*1450 FILLER_35_38
*1451 FILLER_35_50
*1452 FILLER_35_57
*1453 FILLER_35_73
*1454 FILLER_35_87
*1455 FILLER_35_99
*1456 FILLER_36_100
*1457 FILLER_36_112
*1458 FILLER_36_124
*1459 FILLER_36_136
*1460 FILLER_36_147
*1461 FILLER_36_15
*1462 FILLER_36_159
*1463 FILLER_36_167
*1464 FILLER_36_175
*1465 FILLER_36_187
*1466 FILLER_36_195
*1467 FILLER_36_197
*1468 FILLER_36_205
*1469 FILLER_36_213
*1470 FILLER_36_22
*1471 FILLER_36_228
*1472 FILLER_36_236
*1473 FILLER_36_244
*1474 FILLER_36_253
*1475 FILLER_36_261
*1476 FILLER_36_273
*1477 FILLER_36_285
*1478 FILLER_36_297
*1479 FILLER_36_3
*1480 FILLER_36_38
*1481 FILLER_36_44
*1482 FILLER_36_53
*1483 FILLER_36_71
*1484 FILLER_36_80
*1485 FILLER_36_85
*1486 FILLER_36_93
*1487 FILLER_37_105
*1488 FILLER_37_111
*1489 FILLER_37_113
*1490 FILLER_37_12
*1491 FILLER_37_125
*1492 FILLER_37_133
*1493 FILLER_37_139
*1494 FILLER_37_151
*1495 FILLER_37_163
*1496 FILLER_37_167
*1497 FILLER_37_173
*1498 FILLER_37_185
*1499 FILLER_37_197
*1500 FILLER_37_205
*1501 FILLER_37_213
*1502 FILLER_37_221
*1503 FILLER_37_225
*1504 FILLER_37_229
*1505 FILLER_37_235
*1506 FILLER_37_24
*1507 FILLER_37_242
*1508 FILLER_37_254
*1509 FILLER_37_266
*1510 FILLER_37_278
*1511 FILLER_37_281
*1512 FILLER_37_293
*1513 FILLER_37_3
*1514 FILLER_37_32
*1515 FILLER_37_37
*1516 FILLER_37_43
*1517 FILLER_37_49
*1518 FILLER_37_55
*1519 FILLER_37_57
*1520 FILLER_37_69
*1521 FILLER_37_81
*1522 FILLER_37_93
*1523 FILLER_38_111
*1524 FILLER_38_126
*1525 FILLER_38_13
*1526 FILLER_38_138
*1527 FILLER_38_141
*1528 FILLER_38_151
*1529 FILLER_38_161
*1530 FILLER_38_173
*1531 FILLER_38_185
*1532 FILLER_38_193
*1533 FILLER_38_20
*1534 FILLER_38_202
*1535 FILLER_38_210
*1536 FILLER_38_218
*1537 FILLER_38_230
*1538 FILLER_38_242
*1539 FILLER_38_250
*1540 FILLER_38_253
*1541 FILLER_38_265
*1542 FILLER_38_277
*1543 FILLER_38_289
*1544 FILLER_38_297
*1545 FILLER_38_3
*1546 FILLER_38_32
*1547 FILLER_38_38
*1548 FILLER_38_48
*1549 FILLER_38_56
*1550 FILLER_38_64
*1551 FILLER_38_76
*1552 FILLER_38_85
*1553 FILLER_38_99
*1554 FILLER_39_101
*1555 FILLER_39_109
*1556 FILLER_39_117
*1557 FILLER_39_123
*1558 FILLER_39_13
*1559 FILLER_39_133
*1560 FILLER_39_145
*1561 FILLER_39_157
*1562 FILLER_39_165
*1563 FILLER_39_169
*1564 FILLER_39_182
*1565 FILLER_39_190
*1566 FILLER_39_194
*1567 FILLER_39_199
*1568 FILLER_39_21
*1569 FILLER_39_211
*1570 FILLER_39_223
*1571 FILLER_39_225
*1572 FILLER_39_237
*1573 FILLER_39_245
*1574 FILLER_39_251
*1575 FILLER_39_263
*1576 FILLER_39_267
*1577 FILLER_39_271
*1578 FILLER_39_279
*1579 FILLER_39_281
*1580 FILLER_39_293
*1581 FILLER_39_3
*1582 FILLER_39_33
*1583 FILLER_39_41
*1584 FILLER_39_52
*1585 FILLER_39_57
*1586 FILLER_39_69
*1587 FILLER_39_79
*1588 FILLER_39_89
*1589 FILLER_3_107
*1590 FILLER_3_111
*1591 FILLER_3_113
*1592 FILLER_3_125
*1593 FILLER_3_131
*1594 FILLER_3_137
*1595 FILLER_3_149
*1596 FILLER_3_15
*1597 FILLER_3_161
*1598 FILLER_3_167
*1599 FILLER_3_169
*1600 FILLER_3_175
*1601 FILLER_3_186
*1602 FILLER_3_198
*1603 FILLER_3_210
*1604 FILLER_3_222
*1605 FILLER_3_225
*1606 FILLER_3_237
*1607 FILLER_3_249
*1608 FILLER_3_261
*1609 FILLER_3_273
*1610 FILLER_3_279
*1611 FILLER_3_281
*1612 FILLER_3_293
*1613 FILLER_3_3
*1614 FILLER_3_36
*1615 FILLER_3_48
*1616 FILLER_3_57
*1617 FILLER_3_74
*1618 FILLER_3_95
*1619 FILLER_40_102
*1620 FILLER_40_110
*1621 FILLER_40_120
*1622 FILLER_40_132
*1623 FILLER_40_141
*1624 FILLER_40_153
*1625 FILLER_40_165
*1626 FILLER_40_17
*1627 FILLER_40_177
*1628 FILLER_40_189
*1629 FILLER_40_195
*1630 FILLER_40_197
*1631 FILLER_40_209
*1632 FILLER_40_221
*1633 FILLER_40_233
*1634 FILLER_40_24
*1635 FILLER_40_245
*1636 FILLER_40_251
*1637 FILLER_40_253
*1638 FILLER_40_265
*1639 FILLER_40_277
*1640 FILLER_40_289
*1641 FILLER_40_295
*1642 FILLER_40_3
*1643 FILLER_40_36
*1644 FILLER_40_45
*1645 FILLER_40_53
*1646 FILLER_40_62
*1647 FILLER_40_70
*1648 FILLER_40_80
*1649 FILLER_40_92
*1650 FILLER_41_102
*1651 FILLER_41_110
*1652 FILLER_41_113
*1653 FILLER_41_125
*1654 FILLER_41_137
*1655 FILLER_41_149
*1656 FILLER_41_15
*1657 FILLER_41_161
*1658 FILLER_41_167
*1659 FILLER_41_169
*1660 FILLER_41_181
*1661 FILLER_41_189
*1662 FILLER_41_194
*1663 FILLER_41_206
*1664 FILLER_41_218
*1665 FILLER_41_225
*1666 FILLER_41_237
*1667 FILLER_41_24
*1668 FILLER_41_249
*1669 FILLER_41_261
*1670 FILLER_41_273
*1671 FILLER_41_279
*1672 FILLER_41_281
*1673 FILLER_41_289
*1674 FILLER_41_293
*1675 FILLER_41_3
*1676 FILLER_41_32
*1677 FILLER_41_43
*1678 FILLER_41_51
*1679 FILLER_41_55
*1680 FILLER_41_57
*1681 FILLER_41_65
*1682 FILLER_41_78
*1683 FILLER_41_90
*1684 FILLER_42_109
*1685 FILLER_42_120
*1686 FILLER_42_132
*1687 FILLER_42_149
*1688 FILLER_42_15
*1689 FILLER_42_161
*1690 FILLER_42_173
*1691 FILLER_42_185
*1692 FILLER_42_193
*1693 FILLER_42_197
*1694 FILLER_42_209
*1695 FILLER_42_221
*1696 FILLER_42_233
*1697 FILLER_42_245
*1698 FILLER_42_251
*1699 FILLER_42_253
*1700 FILLER_42_265
*1701 FILLER_42_27
*1702 FILLER_42_277
*1703 FILLER_42_289
*1704 FILLER_42_29
*1705 FILLER_42_297
*1706 FILLER_42_3
*1707 FILLER_42_33
*1708 FILLER_42_37
*1709 FILLER_42_44
*1710 FILLER_42_56
*1711 FILLER_42_68
*1712 FILLER_42_80
*1713 FILLER_42_85
*1714 FILLER_42_97
*1715 FILLER_43_107
*1716 FILLER_43_111
*1717 FILLER_43_113
*1718 FILLER_43_125
*1719 FILLER_43_137
*1720 FILLER_43_145
*1721 FILLER_43_15
*1722 FILLER_43_157
*1723 FILLER_43_165
*1724 FILLER_43_169
*1725 FILLER_43_181
*1726 FILLER_43_193
*1727 FILLER_43_20
*1728 FILLER_43_205
*1729 FILLER_43_217
*1730 FILLER_43_223
*1731 FILLER_43_225
*1732 FILLER_43_237
*1733 FILLER_43_249
*1734 FILLER_43_261
*1735 FILLER_43_273
*1736 FILLER_43_279
*1737 FILLER_43_281
*1738 FILLER_43_293
*1739 FILLER_43_3
*1740 FILLER_43_31
*1741 FILLER_43_43