*SPEF "ieee 1481-1999"
*DESIGN "tomkeddie_top_tto_a"
*DATE "11:11:11 Fri 11 11, 1111"
*VENDOR "OpenRCX"
*PROGRAM "Parallel Extraction"
*VERSION "1.0"
*DESIGN_FLOW "NAME_SCOPE LOCAL" "PIN_CAP NONE"
*DIVIDER /
*DELIMITER :
*BUS_DELIMITER []
*T_UNIT 1 NS
*C_UNIT 1 PF
*R_UNIT 1 OHM
*L_UNIT 1 HENRY

*NAME_MAP
*1 io_in[0]
*2 io_in[1]
*3 io_in[2]
*4 io_in[3]
*5 io_in[4]
*6 io_in[5]
*7 io_in[6]
*8 io_in[7]
*9 io_out[0]
*10 io_out[1]
*11 io_out[2]
*12 net2
*13 net3
*14 net4
*15 net5
*16 net6
*19 _000_
*20 _001_
*21 _002_
*22 _003_
*23 _004_
*24 _005_
*25 _006_
*26 _007_
*27 _008_
*28 _009_
*29 _010_
*30 _011_
*31 _012_
*32 _013_
*33 _014_
*34 _015_
*35 _016_
*36 _017_
*37 _018_
*38 _019_
*39 _020_
*40 _021_
*41 _022_
*42 _023_
*43 _024_
*44 _025_
*45 _026_
*46 _027_
*47 _028_
*48 _029_
*49 _030_
*50 _031_
*51 _032_
*52 _033_
*53 _034_
*54 _035_
*55 _036_
*56 _037_
*57 _038_
*58 _039_
*59 _040_
*60 _041_
*61 _042_
*62 _043_
*63 _044_
*64 _045_
*65 _046_
*66 _047_
*67 _048_
*68 _049_
*69 _050_
*70 _051_
*71 _052_
*72 _053_
*73 _054_
*74 _055_
*75 _056_
*76 _057_
*77 _058_
*78 _059_
*79 _060_
*80 _061_
*81 _062_
*82 _063_
*83 _064_
*84 _065_
*85 _066_
*86 _067_
*87 _068_
*88 _069_
*89 _070_
*90 _071_
*91 _072_
*92 _073_
*93 _074_
*94 _075_
*95 _076_
*96 _077_
*97 _078_
*98 _079_
*99 _080_
*100 _081_
*101 _082_
*102 _083_
*103 _084_
*104 _085_
*105 _086_
*106 _087_
*107 _088_
*108 _089_
*109 _090_
*110 _091_
*111 _092_
*112 _093_
*113 _094_
*114 _095_
*115 _096_
*116 _097_
*117 _098_
*118 _099_
*119 _100_
*120 _101_
*121 _102_
*122 _103_
*123 _104_
*124 _105_
*125 _106_
*126 _107_
*127 _108_
*128 _109_
*129 _110_
*130 _111_
*131 _112_
*132 _113_
*133 _114_
*134 _115_
*135 _116_
*136 _117_
*137 _118_
*138 _119_
*139 _120_
*140 _121_
*141 _122_
*142 _123_
*143 _124_
*144 _125_
*145 _126_
*146 _127_
*147 _128_
*148 _129_
*149 _130_
*150 _131_
*151 _132_
*152 _133_
*153 _134_
*154 _135_
*155 _136_
*156 _137_
*157 _138_
*158 _139_
*159 _140_
*160 _141_
*161 _142_
*162 _143_
*163 _144_
*164 _145_
*165 _146_
*166 _147_
*167 _148_
*168 _149_
*169 _150_
*170 _151_
*171 _152_
*172 _153_
*173 _154_
*174 _155_
*175 _156_
*176 _157_
*177 _158_
*178 _159_
*179 _160_
*180 _161_
*181 _162_
*182 _163_
*183 _164_
*184 _165_
*185 _166_
*186 _167_
*187 _168_
*188 _169_
*189 _170_
*190 _171_
*191 _172_
*192 _173_
*193 _174_
*194 _175_
*195 _176_
*196 _177_
*197 _178_
*198 _179_
*199 _180_
*200 _181_
*201 _182_
*202 _183_
*203 _184_
*204 _185_
*205 _186_
*206 _187_
*207 _188_
*208 _189_
*209 _190_
*210 _191_
*211 _192_
*212 _193_
*213 _194_
*214 _195_
*215 _196_
*216 _197_
*217 _198_
*218 _199_
*219 _200_
*220 _201_
*221 _202_
*222 _203_
*223 _204_
*224 _205_
*225 _206_
*226 _207_
*227 _208_
*228 _209_
*229 _210_
*230 _211_
*231 _212_
*232 _213_
*233 _214_
*234 _215_
*235 _216_
*236 _217_
*237 _218_
*238 _219_
*239 _220_
*240 _221_
*241 _222_
*242 _223_
*243 _224_
*244 _225_
*245 _226_
*246 _227_
*247 _228_
*248 _229_
*249 clknet_0_io_in[0]
*250 clknet_1_0__leaf_io_in[0]
*251 clknet_1_1__leaf_io_in[0]
*252 net1
*253 uart_tx\.bit_counter\[0\]
*254 uart_tx\.bit_counter\[1\]
*255 uart_tx\.bit_counter\[2\]
*256 uart_tx\.bit_counter\[3\]
*257 uart_tx\.text_index\[0\]
*258 uart_tx\.text_index\[1\]
*259 uart_tx\.text_index\[2\]
*260 uart_tx\.text_index\[3\]
*261 uart_tx\.text_index\[4\]
*262 uart_tx\.tx_pin0
*263 uart_tx\.tx_pin1
*264 uart_tx\.tx_pin2
*265 ANTENNA_0
*266 FILLER_0_109
*267 FILLER_0_113
*268 FILLER_0_125
*269 FILLER_0_137
*270 FILLER_0_141
*271 FILLER_0_153
*272 FILLER_0_165
*273 FILLER_0_169
*274 FILLER_0_181
*275 FILLER_0_193
*276 FILLER_0_197
*277 FILLER_0_209
*278 FILLER_0_221
*279 FILLER_0_225
*280 FILLER_0_237
*281 FILLER_0_24
*282 FILLER_0_249
*283 FILLER_0_253
*284 FILLER_0_265
*285 FILLER_0_277
*286 FILLER_0_281
*287 FILLER_0_29
*288 FILLER_0_293
*289 FILLER_0_3
*290 FILLER_0_35
*291 FILLER_0_52
*292 FILLER_0_7
*293 FILLER_0_73
*294 FILLER_0_81
*295 FILLER_0_85
*296 FILLER_0_97
*297 FILLER_10_108
*298 FILLER_10_116
*299 FILLER_10_123
*300 FILLER_10_136
*301 FILLER_10_141
*302 FILLER_10_147
*303 FILLER_10_15
*304 FILLER_10_158
*305 FILLER_10_166
*306 FILLER_10_178
*307 FILLER_10_190
*308 FILLER_10_197
*309 FILLER_10_209
*310 FILLER_10_221
*311 FILLER_10_233
*312 FILLER_10_24
*313 FILLER_10_245
*314 FILLER_10_251
*315 FILLER_10_253
*316 FILLER_10_265
*317 FILLER_10_277
*318 FILLER_10_289
*319 FILLER_10_297
*320 FILLER_10_3
*321 FILLER_10_35
*322 FILLER_10_39
*323 FILLER_10_50
*324 FILLER_10_57
*325 FILLER_10_61
*326 FILLER_10_72
*327 FILLER_10_79
*328 FILLER_10_83
*329 FILLER_10_95
*330 FILLER_11_101
*331 FILLER_11_108
*332 FILLER_11_120
*333 FILLER_11_130
*334 FILLER_11_136
*335 FILLER_11_147
*336 FILLER_11_15
*337 FILLER_11_151
*338 FILLER_11_159
*339 FILLER_11_167
*340 FILLER_11_169
*341 FILLER_11_177
*342 FILLER_11_189
*343 FILLER_11_201
*344 FILLER_11_213
*345 FILLER_11_221
*346 FILLER_11_225
*347 FILLER_11_237
*348 FILLER_11_249
*349 FILLER_11_261
*350 FILLER_11_27
*351 FILLER_11_273
*352 FILLER_11_279
*353 FILLER_11_281
*354 FILLER_11_293
*355 FILLER_11_3
*356 FILLER_11_34
*357 FILLER_11_45
*358 FILLER_11_53
*359 FILLER_11_63
*360 FILLER_11_67
*361 FILLER_11_73
*362 FILLER_11_81
*363 FILLER_11_91
*364 FILLER_12_103
*365 FILLER_12_111
*366 FILLER_12_122
*367 FILLER_12_131
*368 FILLER_12_139
*369 FILLER_12_141
*370 FILLER_12_147
*371 FILLER_12_15
*372 FILLER_12_155
*373 FILLER_12_161
*374 FILLER_12_168
*375 FILLER_12_175
*376 FILLER_12_187
*377 FILLER_12_195
*378 FILLER_12_197
*379 FILLER_12_209
*380 FILLER_12_221
*381 FILLER_12_233
*382 FILLER_12_245
*383 FILLER_12_251
*384 FILLER_12_253
*385 FILLER_12_265
*386 FILLER_12_27
*387 FILLER_12_277
*388 FILLER_12_289
*389 FILLER_12_29
*390 FILLER_12_297
*391 FILLER_12_3
*392 FILLER_12_37
*393 FILLER_12_43
*394 FILLER_12_50
*395 FILLER_12_62
*396 FILLER_12_74
*397 FILLER_12_80
*398 FILLER_12_85
*399 FILLER_13_110
*400 FILLER_13_118
*401 FILLER_13_124
*402 FILLER_13_129
*403 FILLER_13_137
*404 FILLER_13_145
*405 FILLER_13_15
*406 FILLER_13_157
*407 FILLER_13_164
*408 FILLER_13_169
*409 FILLER_13_177
*410 FILLER_13_189
*411 FILLER_13_201
*412 FILLER_13_213
*413 FILLER_13_221
*414 FILLER_13_225
*415 FILLER_13_237
*416 FILLER_13_249
*417 FILLER_13_261
*418 FILLER_13_27
*419 FILLER_13_273
*420 FILLER_13_279
*421 FILLER_13_281
*422 FILLER_13_293
*423 FILLER_13_3
*424 FILLER_13_38
*425 FILLER_13_45
*426 FILLER_13_53
*427 FILLER_13_57
*428 FILLER_13_67
*429 FILLER_13_75
*430 FILLER_13_88
*431 FILLER_13_98
*432 FILLER_14_105
*433 FILLER_14_113
*434 FILLER_14_120
*435 FILLER_14_129
*436 FILLER_14_137
*437 FILLER_14_145
*438 FILLER_14_15
*439 FILLER_14_152
*440 FILLER_14_160
*441 FILLER_14_168
*442 FILLER_14_176
*443 FILLER_14_188
*444 FILLER_14_197
*445 FILLER_14_209
*446 FILLER_14_221
*447 FILLER_14_233
*448 FILLER_14_245
*449 FILLER_14_251
*450 FILLER_14_253
*451 FILLER_14_265
*452 FILLER_14_27
*453 FILLER_14_277
*454 FILLER_14_289
*455 FILLER_14_29
*456 FILLER_14_297
*457 FILLER_14_3
*458 FILLER_14_35
*459 FILLER_14_39
*460 FILLER_14_47
*461 FILLER_14_60
*462 FILLER_14_69
*463 FILLER_14_81
*464 FILLER_14_85
*465 FILLER_14_91
*466 FILLER_14_99
*467 FILLER_15_102
*468 FILLER_15_108
*469 FILLER_15_113
*470 FILLER_15_126
*471 FILLER_15_134
*472 FILLER_15_143
*473 FILLER_15_149
*474 FILLER_15_15
*475 FILLER_15_153
*476 FILLER_15_157
*477 FILLER_15_161
*478 FILLER_15_167
*479 FILLER_15_169
*480 FILLER_15_181
*481 FILLER_15_193
*482 FILLER_15_205
*483 FILLER_15_217
*484 FILLER_15_223
*485 FILLER_15_225
*486 FILLER_15_237
*487 FILLER_15_249
*488 FILLER_15_261
*489 FILLER_15_27
*490 FILLER_15_273
*491 FILLER_15_279
*492 FILLER_15_281
*493 FILLER_15_293
*494 FILLER_15_3
*495 FILLER_15_39
*496 FILLER_15_45
*497 FILLER_15_49
*498 FILLER_15_55
*499 FILLER_15_57
*500 FILLER_15_65
*501 FILLER_15_71
*502 FILLER_15_79
*503 FILLER_15_91
*504 FILLER_15_98
*505 FILLER_16_102
*506 FILLER_16_108
*507 FILLER_16_123
*508 FILLER_16_127
*509 FILLER_16_132
*510 FILLER_16_147
*511 FILLER_16_15
*512 FILLER_16_156
*513 FILLER_16_164
*514 FILLER_16_176
*515 FILLER_16_188
*516 FILLER_16_197
*517 FILLER_16_209
*518 FILLER_16_221
*519 FILLER_16_233
*520 FILLER_16_245
*521 FILLER_16_251
*522 FILLER_16_253
*523 FILLER_16_265
*524 FILLER_16_27
*525 FILLER_16_277
*526 FILLER_16_289
*527 FILLER_16_29
*528 FILLER_16_297
*529 FILLER_16_3
*530 FILLER_16_41
*531 FILLER_16_48
*532 FILLER_16_52
*533 FILLER_16_58
*534 FILLER_16_72
*535 FILLER_16_85
*536 FILLER_16_89
*537 FILLER_16_98
*538 FILLER_17_100
*539 FILLER_17_116
*540 FILLER_17_120
*541 FILLER_17_124
*542 FILLER_17_132
*543 FILLER_17_144
*544 FILLER_17_15
*545 FILLER_17_151
*546 FILLER_17_162
*547 FILLER_17_169
*548 FILLER_17_181
*549 FILLER_17_193
*550 FILLER_17_205
*551 FILLER_17_217
*552 FILLER_17_223
*553 FILLER_17_225
*554 FILLER_17_237
*555 FILLER_17_249
*556 FILLER_17_261
*557 FILLER_17_27
*558 FILLER_17_273
*559 FILLER_17_279
*560 FILLER_17_281
*561 FILLER_17_293
*562 FILLER_17_3
*563 FILLER_17_35
*564 FILLER_17_45
*565 FILLER_17_53
*566 FILLER_17_57
*567 FILLER_17_66
*568 FILLER_17_80
*569 FILLER_17_89
*570 FILLER_18_110
*571 FILLER_18_122
*572 FILLER_18_134
*573 FILLER_18_145
*574 FILLER_18_15
*575 FILLER_18_158
*576 FILLER_18_167
*577 FILLER_18_179
*578 FILLER_18_191
*579 FILLER_18_195
*580 FILLER_18_197
*581 FILLER_18_209
*582 FILLER_18_221
*583 FILLER_18_233
*584 FILLER_18_245
*585 FILLER_18_251
*586 FILLER_18_253
*587 FILLER_18_265
*588 FILLER_18_27
*589 FILLER_18_277
*590 FILLER_18_289
*591 FILLER_18_29
*592 FILLER_18_297
*593 FILLER_18_3
*594 FILLER_18_41
*595 FILLER_18_53
*596 FILLER_18_59
*597 FILLER_18_67
*598 FILLER_18_80
*599 FILLER_18_85
*600 FILLER_18_97
*601 FILLER_19_108
*602 FILLER_19_119
*603 FILLER_19_130
*604 FILLER_19_137
*605 FILLER_19_144
*606 FILLER_19_15
*607 FILLER_19_159
*608 FILLER_19_167
*609 FILLER_19_169
*610 FILLER_19_181
*611 FILLER_19_193
*612 FILLER_19_205
*613 FILLER_19_217
*614 FILLER_19_223
*615 FILLER_19_225
*616 FILLER_19_237
*617 FILLER_19_249
*618 FILLER_19_261
*619 FILLER_19_27
*620 FILLER_19_273
*621 FILLER_19_279
*622 FILLER_19_281
*623 FILLER_19_293
*624 FILLER_19_3
*625 FILLER_19_36
*626 FILLER_19_49
*627 FILLER_19_55
*628 FILLER_19_64
*629 FILLER_19_78
*630 FILLER_19_88
*631 FILLER_19_97
*632 FILLER_1_104
*633 FILLER_1_123
*634 FILLER_1_135
*635 FILLER_1_15
*636 FILLER_1_158
*637 FILLER_1_166
*638 FILLER_1_169
*639 FILLER_1_177
*640 FILLER_1_189
*641 FILLER_1_201
*642 FILLER_1_213
*643 FILLER_1_221
*644 FILLER_1_225
*645 FILLER_1_237
*646 FILLER_1_249
*647 FILLER_1_261
*648 FILLER_1_273
*649 FILLER_1_279
*650 FILLER_1_281
*651 FILLER_1_293
*652 FILLER_1_3
*653 FILLER_1_36
*654 FILLER_1_48
*655 FILLER_1_57
*656 FILLER_1_69
*657 FILLER_1_81
*658 FILLER_1_93
*659 FILLER_20_103
*660 FILLER_20_111
*661 FILLER_20_119
*662 FILLER_20_126
*663 FILLER_20_136
*664 FILLER_20_141
*665 FILLER_20_15
*666 FILLER_20_151
*667 FILLER_20_163
*668 FILLER_20_175
*669 FILLER_20_187
*670 FILLER_20_195
*671 FILLER_20_197
*672 FILLER_20_209
*673 FILLER_20_221
*674 FILLER_20_233
*675 FILLER_20_245
*676 FILLER_20_251
*677 FILLER_20_253
*678 FILLER_20_265
*679 FILLER_20_27
*680 FILLER_20_277
*681 FILLER_20_289
*682 FILLER_20_29
*683 FILLER_20_297
*684 FILLER_20_3
*685 FILLER_20_34
*686 FILLER_20_50
*687 FILLER_20_62
*688 FILLER_20_69
*689 FILLER_20_80
*690 FILLER_20_93
*691 FILLER_21_108
*692 FILLER_21_116
*693 FILLER_21_126
*694 FILLER_21_135
*695 FILLER_21_147
*696 FILLER_21_15
*697 FILLER_21_159
*698 FILLER_21_167
*699 FILLER_21_173
*700 FILLER_21_185
*701 FILLER_21_197
*702 FILLER_21_209
*703 FILLER_21_221
*704 FILLER_21_225
*705 FILLER_21_237
*706 FILLER_21_249
*707 FILLER_21_261
*708 FILLER_21_27
*709 FILLER_21_273
*710 FILLER_21_279
*711 FILLER_21_281
*712 FILLER_21_293
*713 FILLER_21_3
*714 FILLER_21_39
*715 FILLER_21_51
*716 FILLER_21_55
*717 FILLER_21_63
*718 FILLER_21_67
*719 FILLER_21_78
*720 FILLER_21_94
*721 FILLER_22_103
*722 FILLER_22_110
*723 FILLER_22_119
*724 FILLER_22_132
*725 FILLER_22_141
*726 FILLER_22_146
*727 FILLER_22_15
*728 FILLER_22_158
*729 FILLER_22_170
*730 FILLER_22_182
*731 FILLER_22_194
*732 FILLER_22_197
*733 FILLER_22_209
*734 FILLER_22_221
*735 FILLER_22_233
*736 FILLER_22_245
*737 FILLER_22_251
*738 FILLER_22_253
*739 FILLER_22_265
*740 FILLER_22_27
*741 FILLER_22_277
*742 FILLER_22_289
*743 FILLER_22_29
*744 FILLER_22_297
*745 FILLER_22_3
*746 FILLER_22_41
*747 FILLER_22_45
*748 FILLER_22_49
*749 FILLER_22_58
*750 FILLER_22_66
*751 FILLER_22_72
*752 FILLER_22_80
*753 FILLER_22_95
*754 FILLER_23_107
*755 FILLER_23_111
*756 FILLER_23_113
*757 FILLER_23_120
*758 FILLER_23_140
*759 FILLER_23_148
*760 FILLER_23_15
*761 FILLER_23_158
*762 FILLER_23_166
*763 FILLER_23_169
*764 FILLER_23_181
*765 FILLER_23_193
*766 FILLER_23_205
*767 FILLER_23_217
*768 FILLER_23_223
*769 FILLER_23_225
*770 FILLER_23_237
*771 FILLER_23_249
*772 FILLER_23_261
*773 FILLER_23_27
*774 FILLER_23_273
*775 FILLER_23_279
*776 FILLER_23_281
*777 FILLER_23_293
*778 FILLER_23_3
*779 FILLER_23_39
*780 FILLER_23_47
*781 FILLER_23_52
*782 FILLER_23_57
*783 FILLER_23_65
*784 FILLER_23_75
*785 FILLER_23_87
*786 FILLER_24_103
*787 FILLER_24_111
*788 FILLER_24_120
*789 FILLER_24_132
*790 FILLER_24_141
*791 FILLER_24_15
*792 FILLER_24_152
*793 FILLER_24_164
*794 FILLER_24_175
*795 FILLER_24_187
*796 FILLER_24_195
*797 FILLER_24_197
*798 FILLER_24_209
*799 FILLER_24_221
*800 FILLER_24_233
*801 FILLER_24_245
*802 FILLER_24_251
*803 FILLER_24_253
*804 FILLER_24_265
*805 FILLER_24_27
*806 FILLER_24_277
*807 FILLER_24_289
*808 FILLER_24_29
*809 FILLER_24_297
*810 FILLER_24_3
*811 FILLER_24_41
*812 FILLER_24_53
*813 FILLER_24_57
*814 FILLER_24_65
*815 FILLER_24_73
*816 FILLER_24_80
*817 FILLER_24_91
*818 FILLER_25_105
*819 FILLER_25_111
*820 FILLER_25_118
*821 FILLER_25_132
*822 FILLER_25_144
*823 FILLER_25_15
*824 FILLER_25_153
*825 FILLER_25_165
*826 FILLER_25_169
*827 FILLER_25_181
*828 FILLER_25_193
*829 FILLER_25_205
*830 FILLER_25_217
*831 FILLER_25_223
*832 FILLER_25_225
*833 FILLER_25_237
*834 FILLER_25_249
*835 FILLER_25_261
*836 FILLER_25_27
*837 FILLER_25_273
*838 FILLER_25_279
*839 FILLER_25_281
*840 FILLER_25_293
*841 FILLER_25_3
*842 FILLER_25_39
*843 FILLER_25_51
*844 FILLER_25_55
*845 FILLER_25_57
*846 FILLER_25_62
*847 FILLER_25_66
*848 FILLER_25_75
*849 FILLER_25_87
*850 FILLER_25_99
*851 FILLER_26_106
*852 FILLER_26_122
*853 FILLER_26_135
*854 FILLER_26_139
*855 FILLER_26_141
*856 FILLER_26_15
*857 FILLER_26_154
*858 FILLER_26_162
*859 FILLER_26_169
*860 FILLER_26_181
*861 FILLER_26_193
*862 FILLER_26_197
*863 FILLER_26_209
*864 FILLER_26_221
*865 FILLER_26_233
*866 FILLER_26_245
*867 FILLER_26_251
*868 FILLER_26_253
*869 FILLER_26_265
*870 FILLER_26_27
*871 FILLER_26_277
*872 FILLER_26_289
*873 FILLER_26_29
*874 FILLER_26_297
*875 FILLER_26_3
*876 FILLER_26_41
*877 FILLER_26_47
*878 FILLER_26_53
*879 FILLER_26_65
*880 FILLER_26_72
*881 FILLER_26_85
*882 FILLER_26_94
*883 FILLER_27_101
*884 FILLER_27_109
*885 FILLER_27_113
*886 FILLER_27_121
*887 FILLER_27_136
*888 FILLER_27_148
*889 FILLER_27_15
*890 FILLER_27_160
*891 FILLER_27_169
*892 FILLER_27_181
*893 FILLER_27_193
*894 FILLER_27_205
*895 FILLER_27_217
*896 FILLER_27_223
*897 FILLER_27_225
*898 FILLER_27_237
*899 FILLER_27_249
*900 FILLER_27_261
*901 FILLER_27_27
*902 FILLER_27_273
*903 FILLER_27_279
*904 FILLER_27_281
*905 FILLER_27_293
*906 FILLER_27_3
*907 FILLER_27_38
*908 FILLER_27_48
*909 FILLER_27_57
*910 FILLER_27_61
*911 FILLER_27_67
*912 FILLER_27_79
*913 FILLER_27_89
*914 FILLER_28_111
*915 FILLER_28_119
*916 FILLER_28_131
*917 FILLER_28_139
*918 FILLER_28_141
*919 FILLER_28_15
*920 FILLER_28_153
*921 FILLER_28_165
*922 FILLER_28_177
*923 FILLER_28_189
*924 FILLER_28_195
*925 FILLER_28_197
*926 FILLER_28_209
*927 FILLER_28_221
*928 FILLER_28_233
*929 FILLER_28_245
*930 FILLER_28_251
*931 FILLER_28_253
*932 FILLER_28_265
*933 FILLER_28_27
*934 FILLER_28_277
*935 FILLER_28_289
*936 FILLER_28_29
*937 FILLER_28_297
*938 FILLER_28_3
*939 FILLER_28_41
*940 FILLER_28_53
*941 FILLER_28_65
*942 FILLER_28_80
*943 FILLER_28_85
*944 FILLER_28_89
*945 FILLER_28_99
*946 FILLER_29_105
*947 FILLER_29_111
*948 FILLER_29_113
*949 FILLER_29_125
*950 FILLER_29_137
*951 FILLER_29_149
*952 FILLER_29_15
*953 FILLER_29_161
*954 FILLER_29_167
*955 FILLER_29_169
*956 FILLER_29_181
*957 FILLER_29_193
*958 FILLER_29_205
*959 FILLER_29_217
*960 FILLER_29_223
*961 FILLER_29_225
*962 FILLER_29_237
*963 FILLER_29_249
*964 FILLER_29_261
*965 FILLER_29_27
*966 FILLER_29_273
*967 FILLER_29_279
*968 FILLER_29_281
*969 FILLER_29_293
*970 FILLER_29_3
*971 FILLER_29_39
*972 FILLER_29_51
*973 FILLER_29_55
*974 FILLER_29_57
*975 FILLER_29_69
*976 FILLER_29_81
*977 FILLER_29_93
*978 FILLER_2_102
*979 FILLER_2_116
*980 FILLER_2_120
*981 FILLER_2_125
*982 FILLER_2_137
*983 FILLER_2_141
*984 FILLER_2_153
*985 FILLER_2_165
*986 FILLER_2_177
*987 FILLER_2_189
*988 FILLER_2_195
*989 FILLER_2_197
*990 FILLER_2_209
*991 FILLER_2_221
*992 FILLER_2_233
*993 FILLER_2_24
*994 FILLER_2_245
*995 FILLER_2_251
*996 FILLER_2_253
*997 FILLER_2_265
*998 FILLER_2_277
*999 FILLER_2_289
*1000 FILLER_2_297
*1001 FILLER_2_3
*1002 FILLER_2_45
*1003 FILLER_2_65
*1004 FILLER_2_7
*1005 FILLER_2_77
*1006 FILLER_2_83
*1007 FILLER_2_85
*1008 FILLER_2_93
*1009 FILLER_30_109
*1010 FILLER_30_121
*1011 FILLER_30_133
*1012 FILLER_30_139
*1013 FILLER_30_141
*1014 FILLER_30_15
*1015 FILLER_30_153
*1016 FILLER_30_165
*1017 FILLER_30_177
*1018 FILLER_30_189
*1019 FILLER_30_195
*1020 FILLER_30_197
*1021 FILLER_30_209
*1022 FILLER_30_221
*1023 FILLER_30_233
*1024 FILLER_30_245
*1025 FILLER_30_251
*1026 FILLER_30_253
*1027 FILLER_30_265
*1028 FILLER_30_27
*1029 FILLER_30_277
*1030 FILLER_30_289
*1031 FILLER_30_29
*1032 FILLER_30_297
*1033 FILLER_30_3
*1034 FILLER_30_41
*1035 FILLER_30_53
*1036 FILLER_30_65
*1037 FILLER_30_77
*1038 FILLER_30_83
*1039 FILLER_30_85
*1040 FILLER_30_97
*1041 FILLER_31_105
*1042 FILLER_31_111
*1043 FILLER_31_113
*1044 FILLER_31_125
*1045 FILLER_31_137
*1046 FILLER_31_149
*1047 FILLER_31_15
*1048 FILLER_31_161
*1049 FILLER_31_167
*1050 FILLER_31_169
*1051 FILLER_31_181
*1052 FILLER_31_193
*1053 FILLER_31_205
*1054 FILLER_31_217
*1055 FILLER_31_223
*1056 FILLER_31_225
*1057 FILLER_31_237
*1058 FILLER_31_249
*1059 FILLER_31_261
*1060 FILLER_31_27
*1061 FILLER_31_273
*1062 FILLER_31_279
*1063 FILLER_31_281
*1064 FILLER_31_293
*1065 FILLER_31_3
*1066 FILLER_31_39
*1067 FILLER_31_51
*1068 FILLER_31_55
*1069 FILLER_31_57
*1070 FILLER_31_69
*1071 FILLER_31_81
*1072 FILLER_31_93
*1073 FILLER_32_109
*1074 FILLER_32_121
*1075 FILLER_32_133
*1076 FILLER_32_139
*1077 FILLER_32_141
*1078 FILLER_32_15
*1079 FILLER_32_153
*1080 FILLER_32_165
*1081 FILLER_32_177
*1082 FILLER_32_189
*1083 FILLER_32_195
*1084 FILLER_32_197
*1085 FILLER_32_209
*1086 FILLER_32_221
*1087 FILLER_32_233
*1088 FILLER_32_245
*1089 FILLER_32_251
*1090 FILLER_32_253
*1091 FILLER_32_265
*1092 FILLER_32_27
*1093 FILLER_32_277
*1094 FILLER_32_289
*1095 FILLER_32_29
*1096 FILLER_32_297
*1097 FILLER_32_3
*1098 FILLER_32_41
*1099 FILLER_32_53
*1100 FILLER_32_65
*1101 FILLER_32_77
*1102 FILLER_32_83
*1103 FILLER_32_85
*1104 FILLER_32_97
*1105 FILLER_33_105
*1106 FILLER_33_111
*1107 FILLER_33_113
*1108 FILLER_33_125
*1109 FILLER_33_137
*1110 FILLER_33_149
*1111 FILLER_33_15
*1112 FILLER_33_161
*1113 FILLER_33_167
*1114 FILLER_33_169
*1115 FILLER_33_181
*1116 FILLER_33_193
*1117 FILLER_33_205
*1118 FILLER_33_217
*1119 FILLER_33_223
*1120 FILLER_33_225
*1121 FILLER_33_237
*1122 FILLER_33_249
*1123 FILLER_33_261
*1124 FILLER_33_27
*1125 FILLER_33_273
*1126 FILLER_33_279
*1127 FILLER_33_281
*1128 FILLER_33_293
*1129 FILLER_33_3
*1130 FILLER_33_39
*1131 FILLER_33_51
*1132 FILLER_33_55
*1133 FILLER_33_57
*1134 FILLER_33_69
*1135 FILLER_33_81
*1136 FILLER_33_93
*1137 FILLER_34_109
*1138 FILLER_34_121
*1139 FILLER_34_133
*1140 FILLER_34_139
*1141 FILLER_34_141
*1142 FILLER_34_15
*1143 FILLER_34_153
*1144 FILLER_34_165
*1145 FILLER_34_177
*1146 FILLER_34_189
*1147 FILLER_34_195
*1148 FILLER_34_197
*1149 FILLER_34_209
*1150 FILLER_34_221
*1151 FILLER_34_233
*1152 FILLER_34_245
*1153 FILLER_34_251
*1154 FILLER_34_253
*1155 FILLER_34_265
*1156 FILLER_34_27
*1157 FILLER_34_277
*1158 FILLER_34_289
*1159 FILLER_34_297
*1160 FILLER_34_3
*1161 FILLER_34_36
*1162 FILLER_34_48
*1163 FILLER_34_60
*1164 FILLER_34_72
*1165 FILLER_34_85
*1166 FILLER_34_97
*1167 FILLER_35_105
*1168 FILLER_35_111
*1169 FILLER_35_113
*1170 FILLER_35_125
*1171 FILLER_35_137
*1172 FILLER_35_149
*1173 FILLER_35_15
*1174 FILLER_35_161
*1175 FILLER_35_167
*1176 FILLER_35_169
*1177 FILLER_35_181
*1178 FILLER_35_193
*1179 FILLER_35_205
*1180 FILLER_35_217
*1181 FILLER_35_223
*1182 FILLER_35_225
*1183 FILLER_35_237
*1184 FILLER_35_249
*1185 FILLER_35_261
*1186 FILLER_35_27
*1187 FILLER_35_273
*1188 FILLER_35_279
*1189 FILLER_35_281
*1190 FILLER_35_293
*1191 FILLER_35_3
*1192 FILLER_35_39
*1193 FILLER_35_51
*1194 FILLER_35_55
*1195 FILLER_35_57
*1196 FILLER_35_69
*1197 FILLER_35_81
*1198 FILLER_35_93
*1199 FILLER_36_109
*1200 FILLER_36_121
*1201 FILLER_36_133
*1202 FILLER_36_139
*1203 FILLER_36_141
*1204 FILLER_36_15
*1205 FILLER_36_153
*1206 FILLER_36_165
*1207 FILLER_36_177
*1208 FILLER_36_189
*1209 FILLER_36_195
*1210 FILLER_36_197
*1211 FILLER_36_209
*1212 FILLER_36_221
*1213 FILLER_36_233
*1214 FILLER_36_245
*1215 FILLER_36_251
*1216 FILLER_36_253
*1217 FILLER_36_265
*1218 FILLER_36_27
*1219 FILLER_36_277
*1220 FILLER_36_289
*1221 FILLER_36_29
*1222 FILLER_36_297
*1223 FILLER_36_3
*1224 FILLER_36_41
*1225 FILLER_36_53
*1226 FILLER_36_65
*1227 FILLER_36_77
*1228 FILLER_36_83
*1229 FILLER_36_85
*1230 FILLER_36_97
*1231 FILLER_37_105
*1232 FILLER_37_111
*1233 FILLER_37_113
*1234 FILLER_37_125
*1235 FILLER_37_137
*1236 FILLER_37_149
*1237 FILLER_37_15
*1238 FILLER_37_161
*1239 FILLER_37_167
*1240 FILLER_37_169
*1241 FILLER_37_181
*1242 FILLER_37_193
*1243 FILLER_37_205
*1244 FILLER_37_217
*1245 FILLER_37_223
*1246 FILLER_37_225
*1247 FILLER_37_23
*1248 FILLER_37_237
*1249 FILLER_37_249
*1250 FILLER_37_261
*1251 FILLER_37_273
*1252 FILLER_37_279
*1253 FILLER_37_281
*1254 FILLER_37_293
*1255 FILLER_37_3
*1256 FILLER_37_31
*1257 FILLER_37_43
*1258 FILLER_37_55
*1259 FILLER_37_57
*1260 FILLER_37_69
*1261 FILLER_37_81
*1262 FILLER_37_93
*1263 FILLER_38_109
*1264 FILLER_38_121
*1265 FILLER_38_133
*1266 FILLER_38_139
*1267 FILLER_38_141
*1268 FILLER_38_15
*1269 FILLER_38_153
*1270 FILLER_38_165
*1271 FILLER_38_177
*1272 FILLER_38_189
*1273 FILLER_38_195
*1274 FILLER_38_197
*1275 FILLER_38_209
*1276 FILLER_38_221
*1277 FILLER_38_233
*1278 FILLER_38_245
*1279 FILLER_38_251
*1280 FILLER_38_253
*1281 FILLER_38_265
*1282 FILLER_38_27
*1283 FILLER_38_277
*1284 FILLER_38_289
*1285 FILLER_38_29
*1286 FILLER_38_297
*1287 FILLER_38_3
*1288 FILLER_38_41
*1289 FILLER_38_53
*1290 FILLER_38_65
*1291 FILLER_38_77
*1292 FILLER_38_83
*1293 FILLER_38_85
*1294 FILLER_38_97
*1295 FILLER_39_105
*1296 FILLER_39_111
*1297 FILLER_39_113
*1298 FILLER_39_125
*1299 FILLER_39_137
*1300 FILLER_39_149
*1301 FILLER_39_15
*1302 FILLER_39_161
*1303 FILLER_39_167
*1304 FILLER_39_169
*1305 FILLER_39_181
*1306 FILLER_39_193
*1307 FILLER_39_205
*1308 FILLER_39_217
*1309 FILLER_39_223
*1310 FILLER_39_225
*1311 FILLER_39_237
*1312 FILLER_39_249
*1313 FILLER_39_261
*1314 FILLER_39_27
*1315 FILLER_39_273
*1316 FILLER_39_279
*1317 FILLER_39_281
*1318 FILLER_39_293
*1319 FILLER_39_3
*1320 FILLER_39_39
*1321 FILLER_39_51
*1322 FILLER_39_55
*1323 FILLER_39_57
*1324 FILLER_39_69
*1325 FILLER_39_81
*1326 FILLER_39_93
*1327 FILLER_3_106
*1328 FILLER_3_116
*1329 FILLER_3_130
*1330 FILLER_3_142
*1331 FILLER_3_154
*1332 FILLER_3_166
*1333 FILLER_3_169
*1334 FILLER_3_180
*1335 FILLER_3_192
*1336 FILLER_3_204
*1337 FILLER_3_216
*1338 FILLER_3_225
*1339 FILLER_3_237
*1340 FILLER_3_249
*1341 FILLER_3_261
*1342 FILLER_3_27
*1343 FILLER_3_273
*1344 FILLER_3_279
*1345 FILLER_3_281
*1346 FILLER_3_293
*1347 FILLER_3_3
*1348 FILLER_3_47
*1349 FILLER_3_55
*1350 FILLER_3_57
*1351 FILLER_3_69
*1352 FILLER_3_80
*1353 FILLER_3_94
*1354 FILLER_40_109
*1355 FILLER_40_121
*1356 FILLER_40_133
*1357 FILLER_40_139
*1358 FILLER_40_141
*1359 FILLER_40_15
*1360 FILLER_40_153
*1361 FILLER_40_165
*1362 FILLER_40_177
*1363 FILLER_40_189
*1364 FILLER_40_195
*1365 FILLER_40_197
*1366 FILLER_40_209
*1367 FILLER_40_221
*1368 FILLER_40_233
*1369 FILLER_40_245
*1370 FILLER_40_251
*1371 FILLER_40_253
*1372 FILLER_40_265
*1373 FILLER_40_27
*1374 FILLER_40_277
*1375 FILLER_40_289
*1376 FILLER_40_29
*1377 FILLER_40_297
*1378 FILLER_40_3
*1379 FILLER_40_41
*1380 FILLER_40_53
*1381 FILLER_40_65
*1382 FILLER_40_77
*1383 FILLER_40_83
*1384 FILLER_40_85
*1385 FILLER_40_97
*1386 FILLER_41_105
*1387 FILLER_41_111
*1388 FILLER_41_113
*1389 FILLER_41_125
*1390 FILLER_41_137
*1391 FILLER_41_149
*1392 FILLER_41_15
*1393 FILLER_41_161
*1394 FILLER_41_167
*1395 FILLER_41_169
*1396 FILLER_41_181
*1397 FILLER_41_193
*1398 FILLER_41_205
*1399 FILLER_41_217
*1400 FILLER_41_223
*1401 FILLER_41_225
*1402 FILLER_41_237
*1403 FILLER_41_249
*1404 FILLER_41_261
*1405 FILLER_41_27
*1406 FILLER_41_273
*1407 FILLER_41_279
*1408 FILLER_41_281
*1409 FILLER_41_293
*1410 FILLER_41_3
*1411 FILLER_41_39
*1412 FILLER_41_51
*1413 FILLER_41_55
*1414 FILLER_41_57
*1415 FILLER_41_69
*1416 FILLER_41_81
*1417 FILLER_41_93
*1418 FILLER_42_109
*1419 FILLER_42_121
*1420 FILLER_42_133
*1421 FILLER_42_139
*1422 FILLER_42_141
*1423 FILLER_42_153
*1424 FILLER_42_165
*1425 FILLER_42_177
*1426 FILLER_42_18
*1427 FILLER_42_189
*1428 FILLER_42_195
*1429 FILLER_42_197
*1430 FILLER_42_209
*1431 FILLER_42_221
*1432 FILLER_42_233
*1433 FILLER_42_245
*1434 FILLER_42_251
*1435 FILLER_42_253
*1436 FILLER_42_26
*1437 FILLER_42_265
*1438 FILLER_42_277
*1439 FILLER_42_289
*1440 FILLER_42_29
*1441 FILLER_42_297
*1442 FILLER_42_41
*1443 FILLER_42_53
*1444 FILLER_42_6
*1445 FILLER_42_65
*1446 FILLER_42_77
*1447 FILLER_42_83
*1448 FILLER_42_85
*1449 FILLER_42_97
*1450 FILLER_43_105
*1451 FILLER_43_111
*1452 FILLER_43_113
*1453 FILLER_43_125
*1454 FILLER_43_137
*1455 FILLER_43_149
*1456 FILLER_43_15
*1457 FILLER_43_161
*1458 FILLER_43_167
*1459 FILLER_43_169
*1460 FILLER_43_181
*1461 FILLER_43_193
*1462 FILLER_43_205
*1463 FILLER_43_217
*1464 FILLER_43_223
*1465 FILLER_43_225
*1466 FILLER_43_237
*1467 FILLER_43_249
*1468 FILLER_43_261
*1469 FILLER_43_27
*1470 FILLER_43_273
*1471 FILLER_43_279
*1472 FILLER_43_281
*1473 FILLER_43_293
*1474 FILLER_43_3
*1475 FILLER_43_39
*1476 FILLER_43_51
*1477 FILLER_43_55
*1478 FILLER_43_57
*1479 FILLER_43_69
*1480 FILLER_43_81
*1481 FILLER_43_93
*1482 FILLER_44_109
*1483 FILLER_44_121
*1484 FILLER_44_133
*1485 FILLER_44_139
*1486 FILLER_44_141
*1487 FILLER_44_15
*1488 FILLER_44_153
*1489 FILLER_44_165
*1490 FILLER_44_177
*1491 FILLER_44_189
*1492 FILLER_44_195
*1493 FILLER_44_197
*1494 FILLER_44_209
*1495 FILLER_44_221
*1496 FILLER_44_233
*1497 FILLER_44_245
*1498 FILLER_44_251
*1499 FILLER_44_253
*1500 FILLER_44_265
*1501 FILLER_44_27
*1502 FILLER_44_277
*1503 FILLER_44_289
*1504 FILLER_44_29
*1505 FILLER_44_297
*1506 FILLER_44_3
*1507 FILLER_44_41
*1508 FILLER_44_53
*1509 FILLER_44_65
*1510 FILLER_44_77
*1511 FILLER_44_83
*1512 FILLER_44_85
*1513 FILLER_44_97
*1514 FILLER_45_105
*1515 FILLER_45_111
*1516 FILLER_45_113
*1517 FILLER_45_125
*1518 FILLER_45_137
*1519 FILLER_45_149
*1520 FILLER_45_15
*1521 FILLER_45_161
*1522 FILLER_45_167
*1523 FILLER_45_169
*1524 FILLER_45_181
*1525 FILLER_45_193
*1526 FILLER_45_205
*1527 FILLER_45_217
*1528 FILLER_45_223
*1529 FILLER_45_225
*1530 FILLER_45_237
*1531 FILLER_45_249
*1532 FILLER_45_261
*1533 FILLER_45_27
*1534 FILLER_45_273
*1535 FILLER_45_279
*1536 FILLER_45_281
*1537 FILLER_45_293
*1538 FILLER_45_3
*1539 FILLER_45_39
*1540 FILLER_45_51
*1541 FILLER_45_55
*1542 FILLER_45_57
*1543 FILLER_45_69
*1544 FILLER_45_81
*1545 FILLER_45_93
*1546 FILLER_46_109
*1547 FILLER_46_121
*1548 FILLER_46_133
*1549 FILLER_46_139
*1550 FILLER_46_141
*1551 FILLER_46_153
*1552 FILLER_46_165
*1553 FILLER_46_177
*1554 FILLER_46_18
*1555 FILLER_46_189
*1556 FILLER_46_195
*1557 FILLER_46_197
*1558 FILLER_46_209
*1559 FILLER_46_221
*1560 FILLER_46_233
*1561 FILLER_46_245
*1562 FILLER_46_251
*1563 FILLER_46_253
*1564 FILLER_46_26
*1565 FILLER_46_265
*1566 FILLER_46_277
*1567 FILLER_46_289
*1568 FILLER_46_29
*1569 FILLER_46_297
*1570 FILLER_46_41
*1571 FILLER_46_53
*1572 FILLER_46_6
*1573 FILLER_46_65
*1574 FILLER_46_77
*1575 FILLER_46_83
*1576 FILLER_46_85
*1577 FILLER_46_97
*1578 FILLER_47_105
*1579 FILLER_47_111
*1580 FILLER_47_113
*1581 FILLER_47_125
*1582 FILLER_47_137
*1583 FILLER_47_149
*1584 FILLER_47_15
*1585 FILLER_47_161
*1586 FILLER_47_167
*1587 FILLER_47_169
*1588 FILLER_47_181
*1589 FILLER_47_193
*1590 FILLER_47_205
*1591 FILLER_47_217
*1592 FILLER_47_223
*1593 FILLER_47_225
*1594 FILLER_47_237
*1595 FILLER_47_249
*1596 FILLER_47_261
*1597 FILLER_47_27
*1598 FILLER_47_273
*1599 FILLER_47_279
*1600 FILLER_47_281
*1601 FILLER_47_293
*1602 FILLER_47_3
*1603 FILLER_47_39
*1604 FILLER_47_51
*1605 FILLER_47_55
*1606 FILLER_47_57
*1607 FILLER_47_69
*1608 FILLER_47_81
*1609 FILLER_47_93
*1610 FILLER_48_109
*1611 FILLER_48_121
*1612 FILLER_48_133
*1613 FILLER_48_139
*1614 FILLER_48_141
*1615 FILLER_48_15
*1616 FILLER_48_153
*1617 FILLER_48_165
*1618 FILLER_48_177
*1619 FILLER_48_189
*1620 FILLER_48_195
*1621 FILLER_48_197
*1622 FILLER_48_209
*1623 FILLER_48_221
*1624 FILLER_48_233
*1625 FILLER_48_245
*1626 FILLER_48_251
*1627 FILLER_48_253
*1628 FILLER_48_265
*1629 FILLER_48_27
*1630 FILLER_48_277
*1631 FILLER_48_289
*1632 FILLER_48_29
*1633 FILLER_48_297
*1634 FILLER_48_3
*1635 FILLER_48_41
*1636 FILLER_48_53
*1637 FILLER_48_65
*1638 FILLER_48_77
*1639 FILLER_48_83
*1640 FILLER_48_85
*1641 FILLER_48_97
*1642 FILLER_49_105
*1643 FILLER_49_111
*1644 FILLER_49_113
*1645 FILLER_49_125
*1646 FILLER_49_137
*1647 FILLER_49_149
*1648 FILLER_49_15
*1649 FILLER_49_161
*1650 FILLER_49_167
*1651 FILLER_49_169
*1652 FILLER_49_181
*1653 FILLER_49_193
*1654 FILLER_49_205
*1655 FILLER_49_217
*1656 FILLER_49_223
*1657 FILLER_49_225
*1658 FILLER_49_237
*1659 FILLER_49_249
*1660 FILLER_49_261
*1661 FILLER_49_27
*1662 FILLER_49_273
*1663 FILLER_49_279