*SPEF "ieee 1481-1999"
*DESIGN "tt2_tholin_diceroll"
*DATE "11:11:11 Fri 11 11, 1111"
*VENDOR "OpenRCX"
*PROGRAM "Parallel Extraction"
*VERSION "1.0"
*DESIGN_FLOW "NAME_SCOPE LOCAL" "PIN_CAP NONE"
*DIVIDER /
*DELIMITER :
*BUS_DELIMITER []
*T_UNIT 1 NS
*C_UNIT 1 PF
*R_UNIT 1 OHM
*L_UNIT 1 HENRY

*NAME_MAP
*1 io_in[0]
*2 io_in[1]
*3 io_in[2]
*4 io_in[3]
*5 io_in[4]
*6 io_in[5]
*7 io_in[6]
*8 io_in[7]
*9 io_out[0]
*10 io_out[1]
*11 io_out[2]
*12 io_out[3]
*13 io_out[4]
*14 io_out[5]
*15 io_out[6]
*16 io_out[7]
*19 _000_
*20 _001_
*21 _002_
*22 _003_
*23 _004_
*24 _005_
*25 _006_
*26 _007_
*27 _008_
*28 _009_
*29 _010_
*30 _011_
*31 _012_
*32 _013_
*33 _014_
*34 _015_
*35 _016_
*36 _017_
*37 _018_
*38 _019_
*39 _020_
*40 _021_
*41 _022_
*42 _023_
*43 _024_
*44 _025_
*45 _026_
*46 _027_
*47 _028_
*48 _029_
*49 _030_
*50 _031_
*51 _032_
*52 _033_
*53 _034_
*54 _035_
*55 _036_
*56 _037_
*57 _038_
*58 _039_
*59 _040_
*60 _041_
*61 _042_
*62 _043_
*63 _044_
*64 _045_
*65 _046_
*66 _047_
*67 _048_
*68 _049_
*69 _050_
*70 _051_
*71 _052_
*72 _053_
*73 _054_
*74 _055_
*75 _056_
*76 _057_
*77 _058_
*78 _059_
*79 _060_
*80 _061_
*81 _062_
*82 _063_
*83 _064_
*84 _065_
*85 _066_
*86 _067_
*87 _068_
*88 _069_
*89 _070_
*90 _071_
*91 _072_
*92 _073_
*93 _074_
*94 _075_
*95 _076_
*96 _077_
*97 _078_
*98 _079_
*99 _080_
*100 _081_
*101 _082_
*102 _083_
*103 _084_
*104 _085_
*105 _086_
*106 _087_
*107 _088_
*108 _089_
*109 _090_
*110 _091_
*111 _092_
*112 _093_
*113 _094_
*114 _095_
*115 _096_
*116 _097_
*117 _098_
*118 _099_
*119 _100_
*120 _101_
*121 _102_
*122 _103_
*123 _104_
*124 _105_
*125 _106_
*126 _107_
*127 _108_
*128 _109_
*129 _110_
*130 _111_
*131 _112_
*132 _113_
*133 _114_
*134 _115_
*135 _116_
*136 _117_
*137 _118_
*138 _119_
*139 _120_
*140 _121_
*141 _122_
*142 _123_
*143 _124_
*144 _125_
*145 _126_
*146 _127_
*147 _128_
*148 _129_
*149 _130_
*150 _131_
*151 _132_
*152 _133_
*153 _134_
*154 _135_
*155 _136_
*156 _137_
*157 _138_
*158 _139_
*159 _140_
*160 _141_
*161 _142_
*162 _143_
*163 _144_
*164 _145_
*165 _146_
*166 _147_
*167 _148_
*168 _149_
*169 _150_
*170 _151_
*171 _152_
*172 _153_
*173 _154_
*174 _155_
*175 _156_
*176 clknet_0_io_in[0]
*177 clknet_2_0__leaf_io_in[0]
*178 clknet_2_1__leaf_io_in[0]
*179 clknet_2_2__leaf_io_in[0]
*180 clknet_2_3__leaf_io_in[0]
*181 dice\.bcd\[0\]
*182 dice\.bcd\[1\]
*183 dice\.bcd\[2\]
*184 dice\.clkdiv\[0\]
*185 dice\.clkdiv\[1\]
*186 dice\.clkdiv\[2\]
*187 dice\.clkdiv\[3\]
*188 dice\.clkdiv\[4\]
*189 dice\.clkdiv\[5\]
*190 dice\.clkdiv\[6\]
*191 dice\.clkdiv\[7\]
*192 dice\.counter\[0\]
*193 dice\.counter\[1\]
*194 dice\.counter\[2\]
*195 dice\.counter\[3\]
*196 dice\.counter\[4\]
*197 dice\.counter\[5\]
*198 dice\.counter\[6\]
*199 dice\.counter\[7\]
*200 dice\.dp
*201 dice\.lfsr\[0\]
*202 dice\.lfsr\[10\]
*203 dice\.lfsr\[11\]
*204 dice\.lfsr\[12\]
*205 dice\.lfsr\[13\]
*206 dice\.lfsr\[14\]
*207 dice\.lfsr\[1\]
*208 dice\.lfsr\[2\]
*209 dice\.lfsr\[3\]
*210 dice\.lfsr\[4\]
*211 dice\.lfsr\[5\]
*212 dice\.lfsr\[6\]
*213 dice\.lfsr\[7\]
*214 dice\.lfsr\[8\]
*215 dice\.lfsr\[9\]
*216 net1
*217 net2
*218 FILLER_0_109
*219 FILLER_0_116
*220 FILLER_0_128
*221 FILLER_0_141
*222 FILLER_0_153
*223 FILLER_0_165
*224 FILLER_0_169
*225 FILLER_0_181
*226 FILLER_0_19
*227 FILLER_0_193
*228 FILLER_0_197
*229 FILLER_0_209
*230 FILLER_0_221
*231 FILLER_0_225
*232 FILLER_0_237
*233 FILLER_0_249
*234 FILLER_0_253
*235 FILLER_0_265
*236 FILLER_0_27
*237 FILLER_0_277
*238 FILLER_0_281
*239 FILLER_0_29
*240 FILLER_0_293
*241 FILLER_0_48
*242 FILLER_0_73
*243 FILLER_0_81
*244 FILLER_0_85
*245 FILLER_0_97
*246 FILLER_10_109
*247 FILLER_10_121
*248 FILLER_10_135
*249 FILLER_10_139
*250 FILLER_10_141
*251 FILLER_10_153
*252 FILLER_10_165
*253 FILLER_10_177
*254 FILLER_10_189
*255 FILLER_10_19
*256 FILLER_10_195
*257 FILLER_10_197
*258 FILLER_10_209
*259 FILLER_10_221
*260 FILLER_10_233
*261 FILLER_10_245
*262 FILLER_10_251
*263 FILLER_10_253
*264 FILLER_10_265
*265 FILLER_10_27
*266 FILLER_10_277
*267 FILLER_10_289
*268 FILLER_10_297
*269 FILLER_10_45
*270 FILLER_10_53
*271 FILLER_10_70
*272 FILLER_10_82
*273 FILLER_10_85
*274 FILLER_10_97
*275 FILLER_11_109
*276 FILLER_11_113
*277 FILLER_11_125
*278 FILLER_11_129
*279 FILLER_11_136
*280 FILLER_11_148
*281 FILLER_11_15
*282 FILLER_11_154
*283 FILLER_11_166
*284 FILLER_11_169
*285 FILLER_11_181
*286 FILLER_11_193
*287 FILLER_11_205
*288 FILLER_11_217
*289 FILLER_11_223
*290 FILLER_11_225
*291 FILLER_11_237
*292 FILLER_11_249
*293 FILLER_11_261
*294 FILLER_11_273
*295 FILLER_11_279
*296 FILLER_11_281
*297 FILLER_11_293
*298 FILLER_11_3
*299 FILLER_11_32
*300 FILLER_11_52
*301 FILLER_11_73
*302 FILLER_11_85
*303 FILLER_11_97
*304 FILLER_12_101
*305 FILLER_12_113
*306 FILLER_12_125
*307 FILLER_12_137
*308 FILLER_12_141
*309 FILLER_12_153
*310 FILLER_12_165
*311 FILLER_12_177
*312 FILLER_12_189
*313 FILLER_12_19
*314 FILLER_12_195
*315 FILLER_12_197
*316 FILLER_12_209
*317 FILLER_12_221
*318 FILLER_12_233
*319 FILLER_12_245
*320 FILLER_12_251
*321 FILLER_12_253
*322 FILLER_12_265
*323 FILLER_12_27
*324 FILLER_12_277
*325 FILLER_12_289
*326 FILLER_12_297
*327 FILLER_12_45
*328 FILLER_12_57
*329 FILLER_12_74
*330 FILLER_12_82
*331 FILLER_12_85
*332 FILLER_13_107
*333 FILLER_13_111
*334 FILLER_13_113
*335 FILLER_13_125
*336 FILLER_13_129
*337 FILLER_13_137
*338 FILLER_13_149
*339 FILLER_13_15
*340 FILLER_13_161
*341 FILLER_13_167
*342 FILLER_13_169
*343 FILLER_13_181
*344 FILLER_13_193
*345 FILLER_13_205
*346 FILLER_13_217
*347 FILLER_13_223
*348 FILLER_13_225
*349 FILLER_13_237
*350 FILLER_13_249
*351 FILLER_13_261
*352 FILLER_13_273
*353 FILLER_13_279
*354 FILLER_13_281
*355 FILLER_13_293
*356 FILLER_13_3
*357 FILLER_13_35
*358 FILLER_13_47
*359 FILLER_13_55
*360 FILLER_13_73
*361 FILLER_13_85
*362 FILLER_13_95
*363 FILLER_14_109
*364 FILLER_14_117
*365 FILLER_14_126
*366 FILLER_14_138
*367 FILLER_14_141
*368 FILLER_14_15
*369 FILLER_14_153
*370 FILLER_14_165
*371 FILLER_14_177
*372 FILLER_14_189
*373 FILLER_14_195
*374 FILLER_14_197
*375 FILLER_14_209
*376 FILLER_14_221
*377 FILLER_14_233
*378 FILLER_14_245
*379 FILLER_14_251
*380 FILLER_14_253
*381 FILLER_14_265
*382 FILLER_14_27
*383 FILLER_14_277
*384 FILLER_14_289
*385 FILLER_14_29
*386 FILLER_14_297
*387 FILLER_14_3
*388 FILLER_14_41
*389 FILLER_14_63
*390 FILLER_14_80
*391 FILLER_14_85
*392 FILLER_14_97
*393 FILLER_15_111
*394 FILLER_15_121
*395 FILLER_15_127
*396 FILLER_15_133
*397 FILLER_15_140
*398 FILLER_15_152
*399 FILLER_15_164
*400 FILLER_15_169
*401 FILLER_15_181
*402 FILLER_15_193
*403 FILLER_15_198
*404 FILLER_15_21
*405 FILLER_15_210
*406 FILLER_15_222
*407 FILLER_15_225
*408 FILLER_15_237
*409 FILLER_15_249
*410 FILLER_15_261
*411 FILLER_15_273
*412 FILLER_15_279
*413 FILLER_15_281
*414 FILLER_15_293
*415 FILLER_15_3
*416 FILLER_15_38
*417 FILLER_15_50
*418 FILLER_15_57
*419 FILLER_15_64
*420 FILLER_15_71
*421 FILLER_15_83
*422 FILLER_15_9
*423 FILLER_15_91
*424 FILLER_15_99
*425 FILLER_16_106
*426 FILLER_16_11
*427 FILLER_16_118
*428 FILLER_16_126
*429 FILLER_16_134
*430 FILLER_16_141
*431 FILLER_16_153
*432 FILLER_16_161
*433 FILLER_16_173
*434 FILLER_16_185
*435 FILLER_16_193
*436 FILLER_16_197
*437 FILLER_16_209
*438 FILLER_16_221
*439 FILLER_16_23
*440 FILLER_16_233
*441 FILLER_16_245
*442 FILLER_16_251
*443 FILLER_16_253
*444 FILLER_16_265
*445 FILLER_16_27
*446 FILLER_16_277
*447 FILLER_16_289
*448 FILLER_16_29
*449 FILLER_16_297
*450 FILLER_16_40
*451 FILLER_16_53
*452 FILLER_16_61
*453 FILLER_16_69
*454 FILLER_16_80
*455 FILLER_16_93
*456 FILLER_17_111
*457 FILLER_17_119
*458 FILLER_17_126
*459 FILLER_17_138
*460 FILLER_17_14
*461 FILLER_17_150
*462 FILLER_17_162
*463 FILLER_17_169
*464 FILLER_17_181
*465 FILLER_17_193
*466 FILLER_17_205
*467 FILLER_17_217
*468 FILLER_17_223
*469 FILLER_17_225
*470 FILLER_17_237
*471 FILLER_17_249
*472 FILLER_17_26
*473 FILLER_17_261
*474 FILLER_17_273
*475 FILLER_17_279
*476 FILLER_17_281
*477 FILLER_17_293
*478 FILLER_17_3
*479 FILLER_17_36
*480 FILLER_17_49
*481 FILLER_17_55
*482 FILLER_17_65
*483 FILLER_17_73
*484 FILLER_17_85
*485 FILLER_17_9
*486 FILLER_17_93
*487 FILLER_17_99
*488 FILLER_18_108
*489 FILLER_18_114
*490 FILLER_18_120
*491 FILLER_18_124
*492 FILLER_18_136
*493 FILLER_18_141
*494 FILLER_18_153
*495 FILLER_18_165
*496 FILLER_18_177
*497 FILLER_18_18
*498 FILLER_18_189
*499 FILLER_18_195
*500 FILLER_18_197
*501 FILLER_18_209
*502 FILLER_18_221
*503 FILLER_18_233
*504 FILLER_18_245
*505 FILLER_18_251
*506 FILLER_18_253
*507 FILLER_18_26
*508 FILLER_18_265
*509 FILLER_18_277
*510 FILLER_18_289
*511 FILLER_18_29
*512 FILLER_18_297
*513 FILLER_18_3
*514 FILLER_18_35
*515 FILLER_18_39
*516 FILLER_18_47
*517 FILLER_18_51
*518 FILLER_18_62
*519 FILLER_18_69
*520 FILLER_18_81
*521 FILLER_18_85
*522 FILLER_18_96
*523 FILLER_19_103
*524 FILLER_19_111
*525 FILLER_19_113
*526 FILLER_19_125
*527 FILLER_19_14
*528 FILLER_19_141
*529 FILLER_19_153
*530 FILLER_19_165
*531 FILLER_19_169
*532 FILLER_19_181
*533 FILLER_19_193
*534 FILLER_19_205
*535 FILLER_19_217
*536 FILLER_19_22
*537 FILLER_19_223
*538 FILLER_19_225
*539 FILLER_19_237
*540 FILLER_19_249
*541 FILLER_19_261
*542 FILLER_19_27
*543 FILLER_19_273
*544 FILLER_19_279
*545 FILLER_19_281
*546 FILLER_19_293
*547 FILLER_19_3
*548 FILLER_19_39
*549 FILLER_19_51
*550 FILLER_19_55
*551 FILLER_19_57
*552 FILLER_19_68
*553 FILLER_19_7
*554 FILLER_19_79
*555 FILLER_19_86
*556 FILLER_19_93
*557 FILLER_19_97
*558 FILLER_1_100
*559 FILLER_1_104
*560 FILLER_1_108
*561 FILLER_1_113
*562 FILLER_1_120
*563 FILLER_1_132
*564 FILLER_1_144
*565 FILLER_1_151
*566 FILLER_1_163
*567 FILLER_1_167
*568 FILLER_1_169
*569 FILLER_1_181
*570 FILLER_1_193
*571 FILLER_1_205
*572 FILLER_1_217
*573 FILLER_1_223
*574 FILLER_1_225
*575 FILLER_1_237
*576 FILLER_1_249
*577 FILLER_1_25
*578 FILLER_1_261
*579 FILLER_1_273
*580 FILLER_1_279
*581 FILLER_1_281
*582 FILLER_1_293
*583 FILLER_1_3
*584 FILLER_1_46
*585 FILLER_1_54
*586 FILLER_1_73
*587 FILLER_1_82
*588 FILLER_1_94
*589 FILLER_20_111
*590 FILLER_20_123
*591 FILLER_20_135
*592 FILLER_20_139
*593 FILLER_20_141
*594 FILLER_20_153
*595 FILLER_20_16
*596 FILLER_20_165
*597 FILLER_20_177
*598 FILLER_20_189
*599 FILLER_20_195
*600 FILLER_20_197
*601 FILLER_20_209
*602 FILLER_20_221
*603 FILLER_20_233
*604 FILLER_20_245
*605 FILLER_20_251
*606 FILLER_20_253
*607 FILLER_20_265
*608 FILLER_20_277
*609 FILLER_20_289
*610 FILLER_20_29
*611 FILLER_20_297
*612 FILLER_20_3
*613 FILLER_20_33
*614 FILLER_20_41
*615 FILLER_20_50
*616 FILLER_20_62
*617 FILLER_20_68
*618 FILLER_20_8
*619 FILLER_20_80
*620 FILLER_20_92
*621 FILLER_20_99
*622 FILLER_21_107
*623 FILLER_21_111
*624 FILLER_21_113
*625 FILLER_21_125
*626 FILLER_21_137
*627 FILLER_21_149
*628 FILLER_21_15
*629 FILLER_21_161
*630 FILLER_21_167
*631 FILLER_21_169
*632 FILLER_21_181
*633 FILLER_21_193
*634 FILLER_21_205
*635 FILLER_21_217
*636 FILLER_21_223
*637 FILLER_21_225
*638 FILLER_21_23
*639 FILLER_21_237
*640 FILLER_21_249
*641 FILLER_21_261
*642 FILLER_21_273
*643 FILLER_21_279
*644 FILLER_21_281
*645 FILLER_21_29
*646 FILLER_21_293
*647 FILLER_21_3
*648 FILLER_21_33
*649 FILLER_21_45
*650 FILLER_21_53
*651 FILLER_21_62
*652 FILLER_21_68
*653 FILLER_21_75
*654 FILLER_21_83
*655 FILLER_21_95
*656 FILLER_22_108
*657 FILLER_22_11
*658 FILLER_22_116
*659 FILLER_22_123
*660 FILLER_22_136
*661 FILLER_22_141
*662 FILLER_22_153
*663 FILLER_22_165
*664 FILLER_22_177
*665 FILLER_22_189
*666 FILLER_22_195
*667 FILLER_22_197
*668 FILLER_22_209
*669 FILLER_22_221
*670 FILLER_22_23
*671 FILLER_22_233
*672 FILLER_22_245
*673 FILLER_22_251
*674 FILLER_22_253
*675 FILLER_22_265
*676 FILLER_22_27
*677 FILLER_22_277
*678 FILLER_22_289
*679 FILLER_22_29
*680 FILLER_22_297
*681 FILLER_22_41
*682 FILLER_22_47
*683 FILLER_22_63
*684 FILLER_22_75
*685 FILLER_22_83
*686 FILLER_22_85
*687 FILLER_22_89
*688 FILLER_22_96
*689 FILLER_23_109
*690 FILLER_23_117
*691 FILLER_23_129
*692 FILLER_23_141
*693 FILLER_23_15
*694 FILLER_23_153
*695 FILLER_23_165
*696 FILLER_23_169
*697 FILLER_23_181
*698 FILLER_23_193
*699 FILLER_23_205
*700 FILLER_23_217
*701 FILLER_23_223
*702 FILLER_23_225
*703 FILLER_23_237
*704 FILLER_23_24
*705 FILLER_23_249
*706 FILLER_23_261
*707 FILLER_23_273
*708 FILLER_23_279
*709 FILLER_23_281
*710 FILLER_23_293
*711 FILLER_23_3
*712 FILLER_23_32
*713 FILLER_23_39
*714 FILLER_23_51
*715 FILLER_23_55
*716 FILLER_23_67
*717 FILLER_23_76
*718 FILLER_23_80
*719 FILLER_23_88
*720 FILLER_23_97
*721 FILLER_24_110
*722 FILLER_24_117
*723 FILLER_24_123
*724 FILLER_24_131
*725 FILLER_24_139
*726 FILLER_24_141
*727 FILLER_24_15
*728 FILLER_24_153
*729 FILLER_24_165
*730 FILLER_24_177
*731 FILLER_24_189
*732 FILLER_24_195
*733 FILLER_24_197
*734 FILLER_24_209
*735 FILLER_24_221
*736 FILLER_24_233
*737 FILLER_24_245
*738 FILLER_24_251
*739 FILLER_24_253
*740 FILLER_24_265
*741 FILLER_24_27
*742 FILLER_24_277
*743 FILLER_24_289
*744 FILLER_24_29
*745 FILLER_24_297
*746 FILLER_24_3
*747 FILLER_24_41
*748 FILLER_24_45
*749 FILLER_24_49
*750 FILLER_24_57
*751 FILLER_24_69
*752 FILLER_24_80
*753 FILLER_24_85
*754 FILLER_24_97
*755 FILLER_25_105
*756 FILLER_25_11
*757 FILLER_25_111
*758 FILLER_25_113
*759 FILLER_25_117
*760 FILLER_25_128
*761 FILLER_25_140
*762 FILLER_25_152
*763 FILLER_25_164
*764 FILLER_25_169
*765 FILLER_25_181
*766 FILLER_25_193
*767 FILLER_25_20
*768 FILLER_25_205
*769 FILLER_25_217
*770 FILLER_25_223
*771 FILLER_25_225
*772 FILLER_25_237
*773 FILLER_25_249
*774 FILLER_25_261
*775 FILLER_25_273
*776 FILLER_25_279
*777 FILLER_25_281
*778 FILLER_25_293
*779 FILLER_25_3
*780 FILLER_25_33
*781 FILLER_25_44
*782 FILLER_25_57
*783 FILLER_25_69
*784 FILLER_25_81
*785 FILLER_25_93
*786 FILLER_26_109
*787 FILLER_26_12
*788 FILLER_26_121
*789 FILLER_26_133
*790 FILLER_26_139
*791 FILLER_26_141
*792 FILLER_26_153
*793 FILLER_26_165
*794 FILLER_26_177
*795 FILLER_26_189
*796 FILLER_26_195
*797 FILLER_26_197
*798 FILLER_26_209
*799 FILLER_26_221
*800 FILLER_26_233
*801 FILLER_26_24
*802 FILLER_26_245
*803 FILLER_26_251
*804 FILLER_26_253
*805 FILLER_26_265
*806 FILLER_26_277
*807 FILLER_26_289
*808 FILLER_26_297
*809 FILLER_26_3
*810 FILLER_26_32
*811 FILLER_26_44
*812 FILLER_26_56
*813 FILLER_26_61
*814 FILLER_26_65
*815 FILLER_26_71
*816 FILLER_26_83
*817 FILLER_26_85
*818 FILLER_26_97
*819 FILLER_27_106
*820 FILLER_27_113
*821 FILLER_27_125
*822 FILLER_27_137
*823 FILLER_27_149
*824 FILLER_27_15
*825 FILLER_27_161
*826 FILLER_27_167
*827 FILLER_27_169
*828 FILLER_27_181
*829 FILLER_27_193
*830 FILLER_27_205
*831 FILLER_27_217
*832 FILLER_27_223
*833 FILLER_27_225
*834 FILLER_27_23
*835 FILLER_27_237
*836 FILLER_27_249
*837 FILLER_27_261
*838 FILLER_27_273
*839 FILLER_27_279
*840 FILLER_27_281
*841 FILLER_27_293
*842 FILLER_27_3
*843 FILLER_27_31
*844 FILLER_27_47
*845 FILLER_27_55
*846 FILLER_27_57
*847 FILLER_27_69
*848 FILLER_27_82
*849 FILLER_27_94
*850 FILLER_28_109
*851 FILLER_28_11
*852 FILLER_28_121
*853 FILLER_28_133
*854 FILLER_28_139
*855 FILLER_28_141
*856 FILLER_28_153
*857 FILLER_28_165
*858 FILLER_28_177
*859 FILLER_28_189
*860 FILLER_28_195
*861 FILLER_28_197
*862 FILLER_28_209
*863 FILLER_28_221
*864 FILLER_28_23
*865 FILLER_28_233
*866 FILLER_28_245
*867 FILLER_28_251
*868 FILLER_28_253
*869 FILLER_28_265
*870 FILLER_28_27
*871 FILLER_28_277
*872 FILLER_28_289
*873 FILLER_28_297
*874 FILLER_28_3
*875 FILLER_28_38
*876 FILLER_28_46
*877 FILLER_28_54
*878 FILLER_28_66
*879 FILLER_28_78
*880 FILLER_28_85
*881 FILLER_28_97
*882 FILLER_29_105
*883 FILLER_29_111
*884 FILLER_29_113
*885 FILLER_29_125
*886 FILLER_29_137
*887 FILLER_29_14
*888 FILLER_29_149
*889 FILLER_29_161
*890 FILLER_29_167
*891 FILLER_29_169
*892 FILLER_29_181
*893 FILLER_29_193
*894 FILLER_29_205
*895 FILLER_29_217
*896 FILLER_29_223
*897 FILLER_29_225
*898 FILLER_29_237
*899 FILLER_29_249
*900 FILLER_29_26
*901 FILLER_29_261
*902 FILLER_29_273
*903 FILLER_29_279
*904 FILLER_29_281
*905 FILLER_29_293
*906 FILLER_29_3
*907 FILLER_29_38
*908 FILLER_29_50
*909 FILLER_29_57
*910 FILLER_29_69
*911 FILLER_29_7
*912 FILLER_29_81
*913 FILLER_29_93
*914 FILLER_2_103
*915 FILLER_2_109
*916 FILLER_2_115
*917 FILLER_2_121
*918 FILLER_2_133
*919 FILLER_2_139
*920 FILLER_2_141
*921 FILLER_2_153
*922 FILLER_2_165
*923 FILLER_2_177
*924 FILLER_2_189
*925 FILLER_2_195
*926 FILLER_2_197
*927 FILLER_2_209
*928 FILLER_2_221
*929 FILLER_2_233
*930 FILLER_2_24
*931 FILLER_2_245
*932 FILLER_2_251
*933 FILLER_2_253
*934 FILLER_2_265
*935 FILLER_2_277
*936 FILLER_2_289
*937 FILLER_2_297
*938 FILLER_2_3
*939 FILLER_2_32
*940 FILLER_2_44
*941 FILLER_2_65
*942 FILLER_2_7
*943 FILLER_2_77
*944 FILLER_2_83
*945 FILLER_2_91
*946 FILLER_30_109
*947 FILLER_30_121
*948 FILLER_30_133
*949 FILLER_30_139
*950 FILLER_30_141
*951 FILLER_30_15
*952 FILLER_30_153
*953 FILLER_30_165
*954 FILLER_30_177
*955 FILLER_30_189
*956 FILLER_30_195
*957 FILLER_30_197
*958 FILLER_30_209
*959 FILLER_30_221
*960 FILLER_30_233
*961 FILLER_30_245
*962 FILLER_30_251
*963 FILLER_30_253
*964 FILLER_30_265
*965 FILLER_30_27
*966 FILLER_30_277
*967 FILLER_30_289
*968 FILLER_30_29
*969 FILLER_30_297
*970 FILLER_30_3
*971 FILLER_30_37
*972 FILLER_30_49
*973 FILLER_30_61
*974 FILLER_30_73
*975 FILLER_30_81
*976 FILLER_30_85
*977 FILLER_30_89
*978 FILLER_30_97
*979 FILLER_31_103
*980 FILLER_31_111
*981 FILLER_31_113
*982 FILLER_31_125
*983 FILLER_31_137
*984 FILLER_31_149
*985 FILLER_31_15
*986 FILLER_31_161
*987 FILLER_31_167
*988 FILLER_31_169
*989 FILLER_31_181
*990 FILLER_31_193
*991 FILLER_31_205
*992 FILLER_31_217
*993 FILLER_31_223
*994 FILLER_31_225
*995 FILLER_31_237
*996 FILLER_31_249
*997 FILLER_31_261
*998 FILLER_31_273
*999 FILLER_31_279
*1000 FILLER_31_281
*1001 FILLER_31_293
*1002 FILLER_31_3
*1003 FILLER_31_30
*1004 FILLER_31_42
*1005 FILLER_31_54
*1006 FILLER_31_57
*1007 FILLER_31_69
*1008 FILLER_31_79
*1009 FILLER_31_91
*1010 FILLER_32_109
*1011 FILLER_32_121
*1012 FILLER_32_133
*1013 FILLER_32_139
*1014 FILLER_32_141
*1015 FILLER_32_153
*1016 FILLER_32_165
*1017 FILLER_32_17
*1018 FILLER_32_177
*1019 FILLER_32_189
*1020 FILLER_32_195
*1021 FILLER_32_197
*1022 FILLER_32_209
*1023 FILLER_32_221
*1024 FILLER_32_233
*1025 FILLER_32_245
*1026 FILLER_32_25
*1027 FILLER_32_251
*1028 FILLER_32_253
*1029 FILLER_32_265
*1030 FILLER_32_277
*1031 FILLER_32_289
*1032 FILLER_32_29
*1033 FILLER_32_297
*1034 FILLER_32_41
*1035 FILLER_32_53
*1036 FILLER_32_6
*1037 FILLER_32_65
*1038 FILLER_32_77
*1039 FILLER_32_83
*1040 FILLER_32_85
*1041 FILLER_32_97
*1042 FILLER_33_105
*1043 FILLER_33_111
*1044 FILLER_33_113
*1045 FILLER_33_12
*1046 FILLER_33_125
*1047 FILLER_33_137
*1048 FILLER_33_149
*1049 FILLER_33_161
*1050 FILLER_33_167
*1051 FILLER_33_169
*1052 FILLER_33_181
*1053 FILLER_33_193
*1054 FILLER_33_205
*1055 FILLER_33_217
*1056 FILLER_33_223
*1057 FILLER_33_225
*1058 FILLER_33_237
*1059 FILLER_33_24
*1060 FILLER_33_249
*1061 FILLER_33_261
*1062 FILLER_33_273
*1063 FILLER_33_279
*1064 FILLER_33_281
*1065 FILLER_33_293
*1066 FILLER_33_3
*1067 FILLER_33_30
*1068 FILLER_33_38
*1069 FILLER_33_50
*1070 FILLER_33_57
*1071 FILLER_33_69
*1072 FILLER_33_7
*1073 FILLER_33_81
*1074 FILLER_33_93
*1075 FILLER_34_109
*1076 FILLER_34_121
*1077 FILLER_34_133
*1078 FILLER_34_139
*1079 FILLER_34_141
*1080 FILLER_34_15
*1081 FILLER_34_153
*1082 FILLER_34_165
*1083 FILLER_34_177
*1084 FILLER_34_189
*1085 FILLER_34_195
*1086 FILLER_34_197
*1087 FILLER_34_209
*1088 FILLER_34_221
*1089 FILLER_34_233
*1090 FILLER_34_24
*1091 FILLER_34_245
*1092 FILLER_34_251
*1093 FILLER_34_253
*1094 FILLER_34_265
*1095 FILLER_34_277
*1096 FILLER_34_289
*1097 FILLER_34_29
*1098 FILLER_34_297
*1099 FILLER_34_3
*1100 FILLER_34_41
*1101 FILLER_34_53
*1102 FILLER_34_65
*1103 FILLER_34_77
*1104 FILLER_34_83
*1105 FILLER_34_85
*1106 FILLER_34_9
*1107 FILLER_34_97
*1108 FILLER_35_105
*1109 FILLER_35_111
*1110 FILLER_35_113
*1111 FILLER_35_125
*1112 FILLER_35_137
*1113 FILLER_35_149
*1114 FILLER_35_161
*1115 FILLER_35_167
*1116 FILLER_35_169
*1117 FILLER_35_181
*1118 FILLER_35_19
*1119 FILLER_35_193
*1120 FILLER_35_205
*1121 FILLER_35_217
*1122 FILLER_35_223
*1123 FILLER_35_225
*1124 FILLER_35_237
*1125 FILLER_35_249
*1126 FILLER_35_261
*1127 FILLER_35_273
*1128 FILLER_35_279
*1129 FILLER_35_281
*1130 FILLER_35_293
*1131 FILLER_35_3
*1132 FILLER_35_31
*1133 FILLER_35_43
*1134 FILLER_35_50
*1135 FILLER_35_57
*1136 FILLER_35_69
*1137 FILLER_35_81
*1138 FILLER_35_93
*1139 FILLER_36_10
*1140 FILLER_36_109
*1141 FILLER_36_121
*1142 FILLER_36_133
*1143 FILLER_36_139
*1144 FILLER_36_141
*1145 FILLER_36_153
*1146 FILLER_36_165
*1147 FILLER_36_177
*1148 FILLER_36_189
*1149 FILLER_36_195
*1150 FILLER_36_197
*1151 FILLER_36_209
*1152 FILLER_36_221
*1153 FILLER_36_233
*1154 FILLER_36_24
*1155 FILLER_36_245
*1156 FILLER_36_251
*1157 FILLER_36_253
*1158 FILLER_36_265
*1159 FILLER_36_277
*1160 FILLER_36_289
*1161 FILLER_36_29
*1162 FILLER_36_297
*1163 FILLER_36_3
*1164 FILLER_36_41
*1165 FILLER_36_53
*1166 FILLER_36_65
*1167 FILLER_36_77
*1168 FILLER_36_83
*1169 FILLER_36_85
*1170 FILLER_36_97
*1171 FILLER_37_105
*1172 FILLER_37_111
*1173 FILLER_37_113
*1174 FILLER_37_125
*1175 FILLER_37_13
*1176 FILLER_37_137
*1177 FILLER_37_149
*1178 FILLER_37_161
*1179 FILLER_37_167
*1180 FILLER_37_169
*1181 FILLER_37_181
*1182 FILLER_37_193
*1183 FILLER_37_20
*1184 FILLER_37_205
*1185 FILLER_37_217
*1186 FILLER_37_223
*1187 FILLER_37_225
*1188 FILLER_37_237
*1189 FILLER_37_249
*1190 FILLER_37_261
*1191 FILLER_37_273
*1192 FILLER_37_279
*1193 FILLER_37_281
*1194 FILLER_37_293
*1195 FILLER_37_3
*1196 FILLER_37_32
*1197 FILLER_37_44
*1198 FILLER_37_57
*1199 FILLER_37_69
*1200 FILLER_37_81
*1201 FILLER_37_93
*1202 FILLER_38_109
*1203 FILLER_38_121
*1204 FILLER_38_133
*1205 FILLER_38_139
*1206 FILLER_38_141
*1207 FILLER_38_15
*1208 FILLER_38_153
*1209 FILLER_38_165
*1210 FILLER_38_177
*1211 FILLER_38_189
*1212 FILLER_38_195
*1213 FILLER_38_197
*1214 FILLER_38_209
*1215 FILLER_38_221
*1216 FILLER_38_233
*1217 FILLER_38_245
*1218 FILLER_38_251
*1219 FILLER_38_253
*1220 FILLER_38_265
*1221 FILLER_38_27
*1222 FILLER_38_277
*1223 FILLER_38_289
*1224 FILLER_38_29
*1225 FILLER_38_297
*1226 FILLER_38_3
*1227 FILLER_38_37
*1228 FILLER_38_46
*1229 FILLER_38_58
*1230 FILLER_38_70
*1231 FILLER_38_82
*1232 FILLER_38_85
*1233 FILLER_38_97
*1234 FILLER_39_105
*1235 FILLER_39_111
*1236 FILLER_39_113
*1237 FILLER_39_125
*1238 FILLER_39_137
*1239 FILLER_39_149
*1240 FILLER_39_161
*1241 FILLER_39_167
*1242 FILLER_39_169
*1243 FILLER_39_17
*1244 FILLER_39_181
*1245 FILLER_39_193
*1246 FILLER_39_205
*1247 FILLER_39_217
*1248 FILLER_39_223
*1249 FILLER_39_225
*1250 FILLER_39_237
*1251 FILLER_39_249
*1252 FILLER_39_25
*1253 FILLER_39_261
*1254 FILLER_39_273
*1255 FILLER_39_279
*1256 FILLER_39_281
*1257 FILLER_39_293
*1258 FILLER_39_3
*1259 FILLER_39_33
*1260 FILLER_39_40
*1261 FILLER_39_52
*1262 FILLER_39_57
*1263 FILLER_39_69
*1264 FILLER_39_81
*1265 FILLER_39_93
*1266 FILLER_3_105
*1267 FILLER_3_111
*1268 FILLER_3_113
*1269 FILLER_3_125
*1270 FILLER_3_137
*1271 FILLER_3_149
*1272 FILLER_3_155
*1273 FILLER_3_164
*1274 FILLER_3_169
*1275 FILLER_3_181
*1276 FILLER_3_193
*1277 FILLER_3_205
*1278 FILLER_3_217
*1279 FILLER_3_223
*1280 FILLER_3_225
*1281 FILLER_3_237
*1282 FILLER_3_249
*1283 FILLER_3_261
*1284 FILLER_3_27
*1285 FILLER_3_273
*1286 FILLER_3_279
*1287 FILLER_3_281
*1288 FILLER_3_293
*1289 FILLER_3_3
*1290 FILLER_3_47
*1291 FILLER_3_55
*1292 FILLER_3_73
*1293 FILLER_3_77
*1294 FILLER_3_81
*1295 FILLER_3_87
*1296 FILLER_3_93
*1297 FILLER_40_109
*1298 FILLER_40_121
*1299 FILLER_40_133
*1300 FILLER_40_139
*1301 FILLER_40_141
*1302 FILLER_40_15
*1303 FILLER_40_153
*1304 FILLER_40_165
*1305 FILLER_40_177
*1306 FILLER_40_189
*1307 FILLER_40_195
*1308 FILLER_40_197
*1309 FILLER_40_209
*1310 FILLER_40_221
*1311 FILLER_40_233
*1312 FILLER_40_245
*1313 FILLER_40_251
*1314 FILLER_40_253
*1315 FILLER_40_265
*1316 FILLER_40_27
*1317 FILLER_40_277
*1318 FILLER_40_289
*1319 FILLER_40_29
*1320 FILLER_40_297
*1321 FILLER_40_3
*1322 FILLER_40_41
*1323 FILLER_40_49
*1324 FILLER_40_61
*1325 FILLER_40_73
*1326 FILLER_40_81
*1327 FILLER_40_85
*1328 FILLER_40_97
*1329 FILLER_41_105
*1330 FILLER_41_111
*1331 FILLER_41_113
*1332 FILLER_41_125
*1333 FILLER_41_137
*1334 FILLER_41_149
*1335 FILLER_41_15
*1336 FILLER_41_161
*1337 FILLER_41_167
*1338 FILLER_41_169
*1339 FILLER_41_181
*1340 FILLER_41_193
*1341 FILLER_41_205
*1342 FILLER_41_217
*1343 FILLER_41_223
*1344 FILLER_41_225
*1345 FILLER_41_237
*1346 FILLER_41_249
*1347 FILLER_41_261
*1348 FILLER_41_27
*1349 FILLER_41_273
*1350 FILLER_41_279
*1351 FILLER_41_281
*1352 FILLER_41_293
*1353 FILLER_41_3
*1354 FILLER_41_39
*1355 FILLER_41_51
*1356 FILLER_41_55
*1357 FILLER_41_57
*1358 FILLER_41_69
*1359 FILLER_41_81
*1360 FILLER_41_93
*1361 FILLER_42_109
*1362 FILLER_42_121
*1363 FILLER_42_133
*1364 FILLER_42_139
*1365 FILLER_42_141
*1366 FILLER_42_15
*1367 FILLER_42_153
*1368 FILLER_42_165
*1369 FILLER_42_177
*1370 FILLER_42_189
*1371 FILLER_42_195
*1372 FILLER_42_197
*1373 FILLER_42_209
*1374 FILLER_42_221
*1375 FILLER_42_233
*1376 FILLER_42_245
*1377 FILLER_42_251
*1378 FILLER_42_253
*1379 FILLER_42_265
*1380 FILLER_42_27
*1381 FILLER_42_277
*1382 FILLER_42_289
*1383 FILLER_42_29
*1384 FILLER_42_297
*1385 FILLER_42_3
*1386 FILLER_42_41
*1387 FILLER_42_53
*1388 FILLER_42_65
*1389 FILLER_42_77
*1390 FILLER_42_83
*1391 FILLER_42_85
*1392 FILLER_42_97
*1393 FILLER_43_105
*1394 FILLER_43_11
*1395 FILLER_43_111
*1396 FILLER_43_113
*1397 FILLER_43_125
*1398 FILLER_43_137
*1399 FILLER_43_149
*1400 FILLER_43_161
*1401 FILLER_43_167
*1402 FILLER_43_169
*1403 FILLER_43_181
*1404 FILLER_43_193
*1405 FILLER_43_205
*1406 FILLER_43_217
*1407 FILLER_43_223
*1408 FILLER_43_225
*1409 FILLER_43_23
*1410 FILLER_43_237
*1411 FILLER_43_249
*1412 FILLER_43_261
*1413 FILLER_43_273
*1414 FILLER_43_279
*1415 FILLER_43_281
*1416 FILLER_43_293
*1417 FILLER_43_3
*1418 FILLER_43_35
*1419 FILLER_43_47
*1420 FILLER_43_55
*1421 FILLER_43_57
*1422 FILLER_43_69
*1423 FILLER_43_81
*1424 FILLER_43_93
*1425 FILLER_44_109
*1426 FILLER_44_121
*1427 FILLER_44_133
*1428 FILLER_44_139
*1429 FILLER_44_141
*1430 FILLER_44_15
*1431 FILLER_44_153
*1432 FILLER_44_165
*1433 FILLER_44_177
*1434 FILLER_44_189
*1435 FILLER_44_195
*1436 FILLER_44_197
*1437 FILLER_44_209
*1438 FILLER_44_221
*1439 FILLER_44_233
*1440 FILLER_44_245
*1441 FILLER_44_251
*1442 FILLER_44_253
*1443 FILLER_44_265
*1444 FILLER_44_27
*1445 FILLER_44_277
*1446 FILLER_44_289
*1447 FILLER_44_29
*1448 FILLER_44_297
*1449 FILLER_44_3
*1450 FILLER_44_41
*1451 FILLER_44_53
*1452 FILLER_44_65
*1453 FILLER_44_77
*1454 FILLER_44_83
*1455 FILLER_44_85
*1456 FILLER_44_97
*1457 FILLER_45_105
*1458 FILLER_45_111
*1459 FILLER_45_113
*1460 FILLER_45_125
*1461 FILLER_45_137
*1462 FILLER_45_149
*1463 FILLER_45_161
*1464 FILLER_45_167
*1465 FILLER_45_169
*1466 FILLER_45_17
*1467 FILLER_45_181
*1468 FILLER_45_193
*1469 FILLER_45_205
*1470 FILLER_45_217
*1471 FILLER_45_223
*1472 FILLER_45_225
*1473 FILLER_45_237
*1474 FILLER_45_249
*1475 FILLER_45_261
*1476 FILLER_45_273
*1477 FILLER_45_279
*1478 FILLER_45_281
*1479 FILLER_45_29
*1480 FILLER_45_293
*1481 FILLER_45_3
*1482 FILLER_45_41
*1483 FILLER_45_53
*1484 FILLER_45_57
*1485 FILLER_45_69
*1486 FILLER_45_81
*1487 FILLER_45_93
*1488 FILLER_46_109
*1489 FILLER_46_121
*1490 FILLER_46_133
*1491 FILLER_46_139
*1492 FILLER_46_141
*1493 FILLER_46_15
*1494 FILLER_46_153
*1495 FILLER_46_165
*1496 FILLER_46_177
*1497 FILLER_46_189
*1498 FILLER_46_195
*1499 FILLER_46_197
*1500 FILLER_46_209
*1501 FILLER_46_221
*1502 FILLER_46_233
*1503 FILLER_46_245
*1504 FILLER_46_251
*1505 FILLER_46_253
*1506 FILLER_46_265
*1507 FILLER_46_27
*1508 FILLER_46_277
*1509 FILLER_46_289
*1510 FILLER_46_29
*1511 FILLER_46_297
*1512 FILLER_46_3
*1513 FILLER_46_41
*1514 FILLER_46_53
*1515 FILLER_46_65
*1516 FILLER_46_77
*1517 FILLER_46_83
*1518 FILLER_46_85
*1519 FILLER_46_97
*1520 FILLER_47_105
*1521 FILLER_47_111
*1522 FILLER_47_113
*1523 FILLER_47_125
*1524 FILLER_47_137
*1525 FILLER_47_149
*1526 FILLER_47_15
*1527 FILLER_47_161
*1528 FILLER_47_167
*1529 FILLER_47_169
*1530 FILLER_47_181
*1531 FILLER_47_193
*1532 FILLER_47_205
*1533 FILLER_47_217
*1534 FILLER_47_223
*1535 FILLER_47_225
*1536 FILLER_47_237
*1537 FILLER_47_249
*1538 FILLER_47_261
*1539 FILLER_47_27
*1540 FILLER_47_273
*1541 FILLER_47_279
*1542 FILLER_47_281
*1543 FILLER_47_293
*1544 FILLER_47_3
*1545 FILLER_47_39
*1546 FILLER_47_51
*1547 FILLER_47_55
*1548 FILLER_47_57
*1549 FILLER_47_69
*1550 FILLER_47_81
*1551 FILLER_47_93
*1552 FILLER_48_109
*1553 FILLER_48_121
*1554 FILLER_48_133
*1555 FILLER_48_139
*1556 FILLER_48_141
*1557 FILLER_48_15
*1558 FILLER_48_153
*1559 FILLER_48_165
*1560 FILLER_48_177
*1561 FILLER_48_189
*1562 FILLER_48_195
*1563 FILLER_48_197
*1564 FILLER_48_209
*1565 FILLER_48_221
*1566 FILLER_48_233
*1567 FILLER_48_245
*1568 FILLER_48_251
*1569 FILLER_48_253
*1570 FILLER_48_265
*1571 FILLER_48_27
*1572 FILLER_48_277
*1573 FILLER_48_289
*1574 FILLER_48_29
*1575 FILLER_48_297
*1576 FILLER_48_3
*1577 FILLER_48_41
*1578 FILLER_48_53
*1579 FILLER_48_65
*1580 FILLER_48_77
*1581 FILLER_48_83
*1582 FILLER_48_85
*1583 FILLER_48_97
*1584 FILLER_49_105
*1585 FILLER_49_111
*1586 FILLER_49_113
*1587 FILLER_49_125
*1588 FILLER_49_137
*1589 FILLER_49_149
*1590 FILLER_49_15
*1591 FILLER_49_161
*1592 FILLER_49_167
*1593 FILLER_49_169
*1594 FILLER_49_181
*1595 FILLER_49_193
*1596 FILLER_49_205
*1597 FILLER_49_217
*1598 FILLER_49_223
*1599 FILLER_49_225
*1600 FILLER_49_23
*1601 FILLER_49_237
*1602 FILLER_49_249
*1603 FILLER_49_261
*1604 FILLER_49_273
*1605 FILLER_49_279
*1606 FILLER_49_281
*1607 FILLER_49_29
*1608 FILLER_49_293
*1609 FILLER_49_3
*1610 FILLER_49_41
*1611 FILLER_49_53
*1612 FILLER_49_57
*1613 FILLER_49_69
*1614 FILLER_49_81
*1615 FILLER_49_93
*1616 FILLER_4_102
*1617 FILLER_4_110
*1618 FILLER_4_122
*1619 FILLER_4_128
*1620 FILLER_4_134
*1621 FILLER_4_141
*1622 FILLER_4_153
*1623 FILLER_4_165
*1624 FILLER_4_177
*1625 FILLER_4_189
*1626 FILLER_4_19
*1627 FILLER_4_195
*1628 FILLER_4_197
*1629 FILLER_4_209
*1630 FILLER_4_221
*1631 FILLER_4_233
*1632 FILLER_4_245
*1633 FILLER_4_251