*SPEF "ieee 1481-1999"
*DESIGN "tt2_tholin_multiplexed_counter"
*DATE "11:11:11 Fri 11 11, 1111"
*VENDOR "OpenRCX"
*PROGRAM "Parallel Extraction"
*VERSION "1.0"
*DESIGN_FLOW "NAME_SCOPE LOCAL" "PIN_CAP NONE"
*DIVIDER /
*DELIMITER :
*BUS_DELIMITER []
*T_UNIT 1 NS
*C_UNIT 1 PF
*R_UNIT 1 OHM
*L_UNIT 1 HENRY

*NAME_MAP
*1 io_in[0]
*2 io_in[1]
*3 io_in[2]
*4 io_in[3]
*5 io_in[4]
*6 io_in[5]
*7 io_in[6]
*8 io_in[7]
*9 io_out[0]
*10 io_out[1]
*11 io_out[2]
*12 io_out[3]
*13 io_out[4]
*14 io_out[5]
*15 io_out[6]
*16 io_out[7]
*19 CIRCUIT_0\.A
*20 CIRCUIT_0\.B
*21 CIRCUIT_0\.C
*22 CIRCUIT_0\.D
*23 CIRCUIT_0\.E
*24 CIRCUIT_0\.F
*25 CIRCUIT_0\.G
*26 CIRCUIT_0\.MEMORY_2\.d
*27 CIRCUIT_0\.MEMORY_2\.s_currentState
*28 CIRCUIT_0\.MEMORY_3\.d
*29 CIRCUIT_0\.MEMORY_3\.s_currentState
*30 CIRCUIT_0\.MEMORY_4\.d
*31 CIRCUIT_0\.MEMORY_4\.s_currentState
*32 CIRCUIT_0\.MEMORY_6\.d
*33 CIRCUIT_0\.MEMORY_6\.s_currentState
*34 CIRCUIT_0\.MEMORY_7\.d
*35 CIRCUIT_0\.MEMORY_7\.s_currentState
*36 CIRCUIT_0\.custom_counter_10_1\.MEMORY_1\.d
*37 CIRCUIT_0\.custom_counter_10_1\.MEMORY_1\.s_currentState
*38 CIRCUIT_0\.custom_counter_10_1\.MEMORY_10\.clock
*39 CIRCUIT_0\.custom_counter_10_1\.MEMORY_10\.d
*40 CIRCUIT_0\.custom_counter_10_1\.MEMORY_10\.s_currentState
*41 CIRCUIT_0\.custom_counter_10_1\.MEMORY_2\.d
*42 CIRCUIT_0\.custom_counter_10_1\.MEMORY_2\.s_currentState
*43 CIRCUIT_0\.custom_counter_10_1\.MEMORY_3\.d
*44 CIRCUIT_0\.custom_counter_10_1\.MEMORY_3\.s_currentState
*45 CIRCUIT_0\.custom_counter_10_1\.MEMORY_4\.d
*46 CIRCUIT_0\.custom_counter_10_1\.MEMORY_4\.s_currentState
*47 CIRCUIT_0\.custom_counter_10_1\.MEMORY_5\.d
*48 CIRCUIT_0\.custom_counter_10_1\.MEMORY_5\.s_currentState
*49 CIRCUIT_0\.custom_counter_10_1\.MEMORY_6\.d
*50 CIRCUIT_0\.custom_counter_10_1\.MEMORY_6\.s_currentState
*51 CIRCUIT_0\.custom_counter_10_1\.MEMORY_7\.clock
*52 CIRCUIT_0\.custom_counter_10_1\.MEMORY_7\.d
*53 CIRCUIT_0\.custom_counter_10_1\.MEMORY_7\.s_currentState
*54 CIRCUIT_0\.custom_counter_10_1\.MEMORY_8\.s_currentState
*55 CIRCUIT_0\.custom_counter_10_1\.MEMORY_9\.s_currentState
*56 CIRCUIT_0\.full_counter_1\.ARITH_1\.aEqualsB
*57 CIRCUIT_0\.full_counter_1\.ARITH_2\.aEqualsB
*58 CIRCUIT_0\.full_counter_1\.MEMORY_3\.s_currentState
*59 CIRCUIT_0\.full_counter_1\.MEMORY_6\.s_currentState
*60 CIRCUIT_0\.full_counter_1\.custom_counter_4_1\.MEMORY_1\.d
*61 CIRCUIT_0\.full_counter_1\.custom_counter_4_1\.MEMORY_1\.s_currentState
*62 CIRCUIT_0\.full_counter_1\.custom_counter_4_1\.MEMORY_2\.d
*63 CIRCUIT_0\.full_counter_1\.custom_counter_4_1\.MEMORY_2\.s_currentState
*64 CIRCUIT_0\.full_counter_1\.custom_counter_4_1\.MEMORY_3\.d
*65 CIRCUIT_0\.full_counter_1\.custom_counter_4_1\.MEMORY_3\.s_currentState
*66 CIRCUIT_0\.full_counter_1\.custom_counter_4_1\.MEMORY_4\.d
*67 CIRCUIT_0\.full_counter_1\.custom_counter_4_1\.MEMORY_4\.s_currentState
*68 CIRCUIT_0\.full_counter_1\.custom_counter_4_2\.MEMORY_1\.d
*69 CIRCUIT_0\.full_counter_1\.custom_counter_4_2\.MEMORY_1\.s_currentState
*70 CIRCUIT_0\.full_counter_1\.custom_counter_4_2\.MEMORY_2\.d
*71 CIRCUIT_0\.full_counter_1\.custom_counter_4_2\.MEMORY_2\.s_currentState
*72 CIRCUIT_0\.full_counter_1\.custom_counter_4_2\.MEMORY_3\.d
*73 CIRCUIT_0\.full_counter_1\.custom_counter_4_2\.MEMORY_3\.s_currentState
*74 CIRCUIT_0\.full_counter_1\.custom_counter_4_2\.MEMORY_4\.d
*75 CIRCUIT_0\.full_counter_1\.custom_counter_4_2\.MEMORY_4\.s_currentState
*76 CIRCUIT_0\.full_counter_1\.seconds_counter_1\.ARITH_1\.aEqualsB
*77 CIRCUIT_0\.full_counter_1\.seconds_counter_1\.ARITH_4\.aEqualsB
*78 CIRCUIT_0\.full_counter_1\.seconds_counter_1\.MEMORY_5\.s_currentState
*79 CIRCUIT_0\.full_counter_1\.seconds_counter_1\.MEMORY_6\.s_currentState
*80 CIRCUIT_0\.full_counter_1\.seconds_counter_1\.custom_counter_4_1\.MEMORY_1\.d
*81 CIRCUIT_0\.full_counter_1\.seconds_counter_1\.custom_counter_4_1\.MEMORY_1\.s_currentState
*82 CIRCUIT_0\.full_counter_1\.seconds_counter_1\.custom_counter_4_1\.MEMORY_2\.d
*83 CIRCUIT_0\.full_counter_1\.seconds_counter_1\.custom_counter_4_1\.MEMORY_2\.s_currentState
*84 CIRCUIT_0\.full_counter_1\.seconds_counter_1\.custom_counter_4_1\.MEMORY_3\.d
*85 CIRCUIT_0\.full_counter_1\.seconds_counter_1\.custom_counter_4_1\.MEMORY_3\.s_currentState
*86 CIRCUIT_0\.full_counter_1\.seconds_counter_1\.custom_counter_4_1\.MEMORY_4\.d
*87 CIRCUIT_0\.full_counter_1\.seconds_counter_1\.custom_counter_4_1\.MEMORY_4\.s_currentState
*88 CIRCUIT_0\.full_counter_1\.seconds_counter_1\.custom_counter_4_2\.MEMORY_1\.d
*89 CIRCUIT_0\.full_counter_1\.seconds_counter_1\.custom_counter_4_2\.MEMORY_1\.s_currentState
*90 CIRCUIT_0\.full_counter_1\.seconds_counter_1\.custom_counter_4_2\.MEMORY_2\.d
*91 CIRCUIT_0\.full_counter_1\.seconds_counter_1\.custom_counter_4_2\.MEMORY_2\.s_currentState
*92 CIRCUIT_0\.full_counter_1\.seconds_counter_1\.custom_counter_4_2\.MEMORY_3\.d
*93 CIRCUIT_0\.full_counter_1\.seconds_counter_1\.custom_counter_4_2\.MEMORY_3\.s_currentState
*94 _002_
*95 _004_
*96 _006_
*97 _008_
*98 _010_
*99 _012_
*100 _014_
*101 _016_
*102 _018_
*103 _021_
*104 _022_
*105 _023_
*106 _024_
*107 _025_
*108 _026_
*109 _027_
*110 _028_
*111 _029_
*112 _030_
*113 _031_
*114 _032_
*115 _033_
*116 _036_
*117 _037_
*118 _038_
*119 _039_
*120 _040_
*121 _041_
*122 _042_
*123 _043_
*124 _044_
*125 _045_
*126 _046_
*127 _047_
*128 _048_
*129 _049_
*130 _051_
*131 _053_
*132 _055_
*133 _057_
*134 _059_
*135 _060_
*136 _061_
*137 _062_
*138 _063_
*139 _064_
*140 _065_
*141 _066_
*142 _067_
*143 _068_
*144 _069_
*145 _070_
*146 _071_
*147 _072_
*148 _073_
*149 _074_
*150 _075_
*151 _076_
*152 _077_
*153 _078_
*154 _079_
*155 _080_
*156 _081_
*157 _082_
*158 _083_
*159 _084_
*160 _085_
*161 _086_
*162 _087_
*163 _088_
*164 _089_
*165 _090_
*166 _091_
*167 _092_
*168 _093_
*169 _094_
*170 _095_
*171 _096_
*172 _097_
*173 _098_
*174 _099_
*175 clknet_0__059_
*176 clknet_0__060_
*177 clknet_0__061_
*178 clknet_0__062_
*179 clknet_0__063_
*180 clknet_0__064_
*181 clknet_0__065_
*182 clknet_0__066_
*183 clknet_0_io_in[0]
*184 clknet_1_0__leaf__059_
*185 clknet_1_0__leaf__060_
*186 clknet_1_0__leaf__061_
*187 clknet_1_0__leaf__062_
*188 clknet_1_0__leaf__063_
*189 clknet_1_0__leaf__064_
*190 clknet_1_0__leaf__065_
*191 clknet_1_0__leaf__066_
*192 clknet_1_0__leaf_io_in[0]
*193 clknet_1_1__leaf__059_
*194 clknet_1_1__leaf__060_
*195 clknet_1_1__leaf__061_
*196 clknet_1_1__leaf__062_
*197 clknet_1_1__leaf__063_
*198 clknet_1_1__leaf__064_
*199 clknet_1_1__leaf__065_
*200 clknet_1_1__leaf__066_
*201 clknet_1_1__leaf_io_in[0]
*202 net1
*203 net10
*204 net11
*205 net12
*206 net13
*207 net14
*208 net15
*209 net16
*210 net17
*211 net18
*212 net19
*213 net2
*214 net20
*215 net3
*216 net4
*217 net5
*218 net6
*219 net7
*220 net8
*221 net9
*222 FILLER_0_108
*223 FILLER_0_113
*224 FILLER_0_136
*225 FILLER_0_141
*226 FILLER_0_164
*227 FILLER_0_169
*228 FILLER_0_181
*229 FILLER_0_193
*230 FILLER_0_197
*231 FILLER_0_209
*232 FILLER_0_221
*233 FILLER_0_225
*234 FILLER_0_237
*235 FILLER_0_24
*236 FILLER_0_249
*237 FILLER_0_253
*238 FILLER_0_265
*239 FILLER_0_277
*240 FILLER_0_281
*241 FILLER_0_29
*242 FILLER_0_293
*243 FILLER_0_3
*244 FILLER_0_52
*245 FILLER_0_57
*246 FILLER_0_80
*247 FILLER_0_85
*248 FILLER_10_116
*249 FILLER_10_123
*250 FILLER_10_135
*251 FILLER_10_139
*252 FILLER_10_141
*253 FILLER_10_153
*254 FILLER_10_165
*255 FILLER_10_177
*256 FILLER_10_189
*257 FILLER_10_195
*258 FILLER_10_197
*259 FILLER_10_209
*260 FILLER_10_221
*261 FILLER_10_233
*262 FILLER_10_24
*263 FILLER_10_245
*264 FILLER_10_251
*265 FILLER_10_253
*266 FILLER_10_265
*267 FILLER_10_277
*268 FILLER_10_289
*269 FILLER_10_297
*270 FILLER_10_34
*271 FILLER_10_43
*272 FILLER_10_68
*273 FILLER_10_74
*274 FILLER_10_80
*275 FILLER_10_85
*276 FILLER_11_100
*277 FILLER_11_11
*278 FILLER_11_116
*279 FILLER_11_140
*280 FILLER_11_152
*281 FILLER_11_164
*282 FILLER_11_169
*283 FILLER_11_181
*284 FILLER_11_19
*285 FILLER_11_193
*286 FILLER_11_205
*287 FILLER_11_217
*288 FILLER_11_223
*289 FILLER_11_225
*290 FILLER_11_237
*291 FILLER_11_249
*292 FILLER_11_261
*293 FILLER_11_273
*294 FILLER_11_279
*295 FILLER_11_281
*296 FILLER_11_293
*297 FILLER_11_3
*298 FILLER_11_44
*299 FILLER_11_51
*300 FILLER_11_55
*301 FILLER_11_62
*302 FILLER_11_66
*303 FILLER_11_7
*304 FILLER_11_88
*305 FILLER_12_116
*306 FILLER_12_128
*307 FILLER_12_141
*308 FILLER_12_153
*309 FILLER_12_165
*310 FILLER_12_177
*311 FILLER_12_189
*312 FILLER_12_195
*313 FILLER_12_197
*314 FILLER_12_209
*315 FILLER_12_221
*316 FILLER_12_233
*317 FILLER_12_24
*318 FILLER_12_245
*319 FILLER_12_251
*320 FILLER_12_253
*321 FILLER_12_265
*322 FILLER_12_277
*323 FILLER_12_289
*324 FILLER_12_297
*325 FILLER_12_3
*326 FILLER_12_32
*327 FILLER_12_56
*328 FILLER_12_80
*329 FILLER_12_85
*330 FILLER_12_93
*331 FILLER_13_107
*332 FILLER_13_111
*333 FILLER_13_116
*334 FILLER_13_128
*335 FILLER_13_140
*336 FILLER_13_152
*337 FILLER_13_164
*338 FILLER_13_169
*339 FILLER_13_181
*340 FILLER_13_193
*341 FILLER_13_205
*342 FILLER_13_217
*343 FILLER_13_223
*344 FILLER_13_225
*345 FILLER_13_237
*346 FILLER_13_249
*347 FILLER_13_261
*348 FILLER_13_27
*349 FILLER_13_273
*350 FILLER_13_279
*351 FILLER_13_281
*352 FILLER_13_293
*353 FILLER_13_3
*354 FILLER_13_52
*355 FILLER_13_57
*356 FILLER_13_81
*357 FILLER_13_85
*358 FILLER_14_119
*359 FILLER_14_127
*360 FILLER_14_139
*361 FILLER_14_141
*362 FILLER_14_153
*363 FILLER_14_165
*364 FILLER_14_177
*365 FILLER_14_189
*366 FILLER_14_195
*367 FILLER_14_197
*368 FILLER_14_209
*369 FILLER_14_221
*370 FILLER_14_233
*371 FILLER_14_24
*372 FILLER_14_245
*373 FILLER_14_251
*374 FILLER_14_253
*375 FILLER_14_265
*376 FILLER_14_277
*377 FILLER_14_289
*378 FILLER_14_29
*379 FILLER_14_297
*380 FILLER_14_3
*381 FILLER_14_55
*382 FILLER_14_64
*383 FILLER_14_76
*384 FILLER_14_85
*385 FILLER_14_92
*386 FILLER_15_105
*387 FILLER_15_111
*388 FILLER_15_113
*389 FILLER_15_12
*390 FILLER_15_125
*391 FILLER_15_137
*392 FILLER_15_143
*393 FILLER_15_155
*394 FILLER_15_16
*395 FILLER_15_167
*396 FILLER_15_169
*397 FILLER_15_181
*398 FILLER_15_193
*399 FILLER_15_20
*400 FILLER_15_205
*401 FILLER_15_217
*402 FILLER_15_223
*403 FILLER_15_225
*404 FILLER_15_237
*405 FILLER_15_24
*406 FILLER_15_249
*407 FILLER_15_261
*408 FILLER_15_273
*409 FILLER_15_279
*410 FILLER_15_281
*411 FILLER_15_293
*412 FILLER_15_3
*413 FILLER_15_31
*414 FILLER_15_43
*415 FILLER_15_55
*416 FILLER_15_57
*417 FILLER_15_69
*418 FILLER_15_8
*419 FILLER_15_81
*420 FILLER_15_93
*421 FILLER_16_100
*422 FILLER_16_112
*423 FILLER_16_121
*424 FILLER_16_133
*425 FILLER_16_139
*426 FILLER_16_141
*427 FILLER_16_15
*428 FILLER_16_153
*429 FILLER_16_165
*430 FILLER_16_177
*431 FILLER_16_189
*432 FILLER_16_195
*433 FILLER_16_197
*434 FILLER_16_209
*435 FILLER_16_221
*436 FILLER_16_233
*437 FILLER_16_245
*438 FILLER_16_251
*439 FILLER_16_253
*440 FILLER_16_265
*441 FILLER_16_27
*442 FILLER_16_277
*443 FILLER_16_289
*444 FILLER_16_29
*445 FILLER_16_297
*446 FILLER_16_3
*447 FILLER_16_41
*448 FILLER_16_53
*449 FILLER_16_65
*450 FILLER_16_77
*451 FILLER_16_8
*452 FILLER_16_83
*453 FILLER_16_88
*454 FILLER_17_105
*455 FILLER_17_111
*456 FILLER_17_113
*457 FILLER_17_125
*458 FILLER_17_137
*459 FILLER_17_149
*460 FILLER_17_15
*461 FILLER_17_157
*462 FILLER_17_162
*463 FILLER_17_169
*464 FILLER_17_181
*465 FILLER_17_193
*466 FILLER_17_205
*467 FILLER_17_21
*468 FILLER_17_217
*469 FILLER_17_223
*470 FILLER_17_225
*471 FILLER_17_237
*472 FILLER_17_249
*473 FILLER_17_261
*474 FILLER_17_273
*475 FILLER_17_279
*476 FILLER_17_281
*477 FILLER_17_293
*478 FILLER_17_3
*479 FILLER_17_32
*480 FILLER_17_39
*481 FILLER_17_51
*482 FILLER_17_55
*483 FILLER_17_64
*484 FILLER_17_7
*485 FILLER_17_76
*486 FILLER_17_81
*487 FILLER_17_89
*488 FILLER_17_93
*489 FILLER_18_109
*490 FILLER_18_121
*491 FILLER_18_133
*492 FILLER_18_139
*493 FILLER_18_141
*494 FILLER_18_15
*495 FILLER_18_153
*496 FILLER_18_165
*497 FILLER_18_177
*498 FILLER_18_189
*499 FILLER_18_195
*500 FILLER_18_197
*501 FILLER_18_209
*502 FILLER_18_221
*503 FILLER_18_233
*504 FILLER_18_245
*505 FILLER_18_251
*506 FILLER_18_253
*507 FILLER_18_265
*508 FILLER_18_27
*509 FILLER_18_277
*510 FILLER_18_289
*511 FILLER_18_297
*512 FILLER_18_3
*513 FILLER_18_32
*514 FILLER_18_44
*515 FILLER_18_56
*516 FILLER_18_68
*517 FILLER_18_80
*518 FILLER_18_85
*519 FILLER_18_97
*520 FILLER_19_104
*521 FILLER_19_113
*522 FILLER_19_125
*523 FILLER_19_137
*524 FILLER_19_149
*525 FILLER_19_15
*526 FILLER_19_161
*527 FILLER_19_167
*528 FILLER_19_169
*529 FILLER_19_181
*530 FILLER_19_193
*531 FILLER_19_205
*532 FILLER_19_217
*533 FILLER_19_223
*534 FILLER_19_225
*535 FILLER_19_237
*536 FILLER_19_249
*537 FILLER_19_261
*538 FILLER_19_273
*539 FILLER_19_279
*540 FILLER_19_281
*541 FILLER_19_293
*542 FILLER_19_3
*543 FILLER_19_30
*544 FILLER_19_34
*545 FILLER_19_38
*546 FILLER_19_45
*547 FILLER_19_53
*548 FILLER_19_64
*549 FILLER_19_72
*550 FILLER_19_93
*551 FILLER_1_108
*552 FILLER_1_113
*553 FILLER_1_137
*554 FILLER_1_161
*555 FILLER_1_167
*556 FILLER_1_169
*557 FILLER_1_177
*558 FILLER_1_181
*559 FILLER_1_193
*560 FILLER_1_198
*561 FILLER_1_205
*562 FILLER_1_217
*563 FILLER_1_223
*564 FILLER_1_225
*565 FILLER_1_237
*566 FILLER_1_249
*567 FILLER_1_261
*568 FILLER_1_27
*569 FILLER_1_273
*570 FILLER_1_279
*571 FILLER_1_281
*572 FILLER_1_293
*573 FILLER_1_3
*574 FILLER_1_52
*575 FILLER_1_74
*576 FILLER_1_99
*577 FILLER_20_109
*578 FILLER_20_121
*579 FILLER_20_133
*580 FILLER_20_139
*581 FILLER_20_141
*582 FILLER_20_153
*583 FILLER_20_159
*584 FILLER_20_163
*585 FILLER_20_175
*586 FILLER_20_187
*587 FILLER_20_195
*588 FILLER_20_197
*589 FILLER_20_20
*590 FILLER_20_209
*591 FILLER_20_221
*592 FILLER_20_233
*593 FILLER_20_245
*594 FILLER_20_251
*595 FILLER_20_253
*596 FILLER_20_265
*597 FILLER_20_277
*598 FILLER_20_289
*599 FILLER_20_29
*600 FILLER_20_297
*601 FILLER_20_3
*602 FILLER_20_35
*603 FILLER_20_50
*604 FILLER_20_57
*605 FILLER_20_69
*606 FILLER_20_8
*607 FILLER_20_81
*608 FILLER_20_85
*609 FILLER_20_97
*610 FILLER_21_10
*611 FILLER_21_105
*612 FILLER_21_111
*613 FILLER_21_113
*614 FILLER_21_125
*615 FILLER_21_140
*616 FILLER_21_152
*617 FILLER_21_161
*618 FILLER_21_167
*619 FILLER_21_169
*620 FILLER_21_181
*621 FILLER_21_193
*622 FILLER_21_205
*623 FILLER_21_217
*624 FILLER_21_22
*625 FILLER_21_223
*626 FILLER_21_225
*627 FILLER_21_237
*628 FILLER_21_249
*629 FILLER_21_261
*630 FILLER_21_273
*631 FILLER_21_279
*632 FILLER_21_281
*633 FILLER_21_293
*634 FILLER_21_3
*635 FILLER_21_34
*636 FILLER_21_46
*637 FILLER_21_54
*638 FILLER_21_57
*639 FILLER_21_69
*640 FILLER_21_81
*641 FILLER_21_93
*642 FILLER_22_109
*643 FILLER_22_121
*644 FILLER_22_133
*645 FILLER_22_139
*646 FILLER_22_141
*647 FILLER_22_148
*648 FILLER_22_160
*649 FILLER_22_172
*650 FILLER_22_184
*651 FILLER_22_197
*652 FILLER_22_20
*653 FILLER_22_209
*654 FILLER_22_221
*655 FILLER_22_233
*656 FILLER_22_245
*657 FILLER_22_251
*658 FILLER_22_253
*659 FILLER_22_265
*660 FILLER_22_277
*661 FILLER_22_289
*662 FILLER_22_29
*663 FILLER_22_297
*664 FILLER_22_3
*665 FILLER_22_41
*666 FILLER_22_53
*667 FILLER_22_79
*668 FILLER_22_8
*669 FILLER_22_83
*670 FILLER_22_85
*671 FILLER_22_97
*672 FILLER_23_108
*673 FILLER_23_113
*674 FILLER_23_125
*675 FILLER_23_137
*676 FILLER_23_149
*677 FILLER_23_15
*678 FILLER_23_161
*679 FILLER_23_167
*680 FILLER_23_172
*681 FILLER_23_184
*682 FILLER_23_196
*683 FILLER_23_208
*684 FILLER_23_220
*685 FILLER_23_225
*686 FILLER_23_237
*687 FILLER_23_249
*688 FILLER_23_261
*689 FILLER_23_27
*690 FILLER_23_273
*691 FILLER_23_279
*692 FILLER_23_281
*693 FILLER_23_293
*694 FILLER_23_3
*695 FILLER_23_39
*696 FILLER_23_51
*697 FILLER_23_55
*698 FILLER_23_60
*699 FILLER_23_72
*700 FILLER_23_84
*701 FILLER_23_96
*702 FILLER_24_109
*703 FILLER_24_11
*704 FILLER_24_121
*705 FILLER_24_133
*706 FILLER_24_139
*707 FILLER_24_141
*708 FILLER_24_153
*709 FILLER_24_165
*710 FILLER_24_177
*711 FILLER_24_189
*712 FILLER_24_195
*713 FILLER_24_197
*714 FILLER_24_209
*715 FILLER_24_221
*716 FILLER_24_23
*717 FILLER_24_233
*718 FILLER_24_245
*719 FILLER_24_251
*720 FILLER_24_253
*721 FILLER_24_265
*722 FILLER_24_27
*723 FILLER_24_277
*724 FILLER_24_289
*725 FILLER_24_29
*726 FILLER_24_297
*727 FILLER_24_3
*728 FILLER_24_41
*729 FILLER_24_47
*730 FILLER_24_59
*731 FILLER_24_7
*732 FILLER_24_71
*733 FILLER_24_83
*734 FILLER_24_85
*735 FILLER_24_97
*736 FILLER_25_109
*737 FILLER_25_113
*738 FILLER_25_125
*739 FILLER_25_132
*740 FILLER_25_144
*741 FILLER_25_15
*742 FILLER_25_156
*743 FILLER_25_169
*744 FILLER_25_181
*745 FILLER_25_193
*746 FILLER_25_205
*747 FILLER_25_217
*748 FILLER_25_223
*749 FILLER_25_225
*750 FILLER_25_237
*751 FILLER_25_249
*752 FILLER_25_261
*753 FILLER_25_27
*754 FILLER_25_273
*755 FILLER_25_279
*756 FILLER_25_281
*757 FILLER_25_293
*758 FILLER_25_3
*759 FILLER_25_39
*760 FILLER_25_51
*761 FILLER_25_55
*762 FILLER_25_57
*763 FILLER_25_69
*764 FILLER_25_78
*765 FILLER_25_85
*766 FILLER_25_97
*767 FILLER_26_105
*768 FILLER_26_11
*769 FILLER_26_117
*770 FILLER_26_129
*771 FILLER_26_137
*772 FILLER_26_141
*773 FILLER_26_153
*774 FILLER_26_165
*775 FILLER_26_177
*776 FILLER_26_189
*777 FILLER_26_195
*778 FILLER_26_197
*779 FILLER_26_209
*780 FILLER_26_221
*781 FILLER_26_23
*782 FILLER_26_233
*783 FILLER_26_245
*784 FILLER_26_251
*785 FILLER_26_253
*786 FILLER_26_265
*787 FILLER_26_27
*788 FILLER_26_277
*789 FILLER_26_289
*790 FILLER_26_29
*791 FILLER_26_297
*792 FILLER_26_3
*793 FILLER_26_41
*794 FILLER_26_53
*795 FILLER_26_65
*796 FILLER_26_7
*797 FILLER_26_77
*798 FILLER_26_83
*799 FILLER_26_90
*800 FILLER_27_100
*801 FILLER_27_107
*802 FILLER_27_111
*803 FILLER_27_113
*804 FILLER_27_125
*805 FILLER_27_137
*806 FILLER_27_149
*807 FILLER_27_15
*808 FILLER_27_161
*809 FILLER_27_167
*810 FILLER_27_169
*811 FILLER_27_181
*812 FILLER_27_193
*813 FILLER_27_205
*814 FILLER_27_217
*815 FILLER_27_223
*816 FILLER_27_225
*817 FILLER_27_237
*818 FILLER_27_249
*819 FILLER_27_261
*820 FILLER_27_27
*821 FILLER_27_273
*822 FILLER_27_279
*823 FILLER_27_281
*824 FILLER_27_293
*825 FILLER_27_3
*826 FILLER_27_39
*827 FILLER_27_51
*828 FILLER_27_55
*829 FILLER_27_57
*830 FILLER_27_64
*831 FILLER_27_76
*832 FILLER_27_88
*833 FILLER_28_109
*834 FILLER_28_121
*835 FILLER_28_133
*836 FILLER_28_139
*837 FILLER_28_141
*838 FILLER_28_15
*839 FILLER_28_153
*840 FILLER_28_165
*841 FILLER_28_177
*842 FILLER_28_189
*843 FILLER_28_195
*844 FILLER_28_197
*845 FILLER_28_209
*846 FILLER_28_221
*847 FILLER_28_233
*848 FILLER_28_245
*849 FILLER_28_251
*850 FILLER_28_253
*851 FILLER_28_265
*852 FILLER_28_27
*853 FILLER_28_277
*854 FILLER_28_289
*855 FILLER_28_29
*856 FILLER_28_297
*857 FILLER_28_3
*858 FILLER_28_41
*859 FILLER_28_53
*860 FILLER_28_65
*861 FILLER_28_77
*862 FILLER_28_83
*863 FILLER_28_85
*864 FILLER_28_97
*865 FILLER_29_107
*866 FILLER_29_111
*867 FILLER_29_113
*868 FILLER_29_125
*869 FILLER_29_137
*870 FILLER_29_153
*871 FILLER_29_165
*872 FILLER_29_169
*873 FILLER_29_181
*874 FILLER_29_193
*875 FILLER_29_205
*876 FILLER_29_21
*877 FILLER_29_217
*878 FILLER_29_223
*879 FILLER_29_225
*880 FILLER_29_237
*881 FILLER_29_249
*882 FILLER_29_261
*883 FILLER_29_273
*884 FILLER_29_279
*885 FILLER_29_281
*886 FILLER_29_293
*887 FILLER_29_3
*888 FILLER_29_33
*889 FILLER_29_45
*890 FILLER_29_53
*891 FILLER_29_57
*892 FILLER_29_69
*893 FILLER_29_83
*894 FILLER_29_9
*895 FILLER_29_95
*896 FILLER_2_120
*897 FILLER_2_127
*898 FILLER_2_134
*899 FILLER_2_144
*900 FILLER_2_151
*901 FILLER_2_163
*902 FILLER_2_175
*903 FILLER_2_187
*904 FILLER_2_195
*905 FILLER_2_197
*906 FILLER_2_209
*907 FILLER_2_221
*908 FILLER_2_233
*909 FILLER_2_24
*910 FILLER_2_245
*911 FILLER_2_251
*912 FILLER_2_253
*913 FILLER_2_265
*914 FILLER_2_277
*915 FILLER_2_289
*916 FILLER_2_297
*917 FILLER_2_3
*918 FILLER_2_46
*919 FILLER_2_71
*920 FILLER_2_78
*921 FILLER_2_85
*922 FILLER_2_94
*923 FILLER_2_98
*924 FILLER_30_109
*925 FILLER_30_121
*926 FILLER_30_133
*927 FILLER_30_139
*928 FILLER_30_141
*929 FILLER_30_15
*930 FILLER_30_153
*931 FILLER_30_165
*932 FILLER_30_177
*933 FILLER_30_189
*934 FILLER_30_195
*935 FILLER_30_197
*936 FILLER_30_209
*937 FILLER_30_221
*938 FILLER_30_233
*939 FILLER_30_245
*940 FILLER_30_251
*941 FILLER_30_253
*942 FILLER_30_265
*943 FILLER_30_27
*944 FILLER_30_277
*945 FILLER_30_289
*946 FILLER_30_29
*947 FILLER_30_297
*948 FILLER_30_3
*949 FILLER_30_41
*950 FILLER_30_45
*951 FILLER_30_57
*952 FILLER_30_69
*953 FILLER_30_81
*954 FILLER_30_85
*955 FILLER_30_97
*956 FILLER_31_111
*957 FILLER_31_113
*958 FILLER_31_125
*959 FILLER_31_137
*960 FILLER_31_149
*961 FILLER_31_15
*962 FILLER_31_161
*963 FILLER_31_167
*964 FILLER_31_169
*965 FILLER_31_181
*966 FILLER_31_193
*967 FILLER_31_205
*968 FILLER_31_217
*969 FILLER_31_223
*970 FILLER_31_225
*971 FILLER_31_237
*972 FILLER_31_249
*973 FILLER_31_261
*974 FILLER_31_27
*975 FILLER_31_273
*976 FILLER_31_279
*977 FILLER_31_281
*978 FILLER_31_293
*979 FILLER_31_3
*980 FILLER_31_39
*981 FILLER_31_51
*982 FILLER_31_55
*983 FILLER_31_57
*984 FILLER_31_69
*985 FILLER_31_81
*986 FILLER_31_87
*987 FILLER_31_99
*988 FILLER_32_110
*989 FILLER_32_122
*990 FILLER_32_134
*991 FILLER_32_141
*992 FILLER_32_149
*993 FILLER_32_15
*994 FILLER_32_156
*995 FILLER_32_168
*996 FILLER_32_180
*997 FILLER_32_192
*998 FILLER_32_197
*999 FILLER_32_209
*1000 FILLER_32_221
*1001 FILLER_32_233
*1002 FILLER_32_245
*1003 FILLER_32_251
*1004 FILLER_32_253
*1005 FILLER_32_265
*1006 FILLER_32_27
*1007 FILLER_32_277
*1008 FILLER_32_289
*1009 FILLER_32_29
*1010 FILLER_32_297
*1011 FILLER_32_3
*1012 FILLER_32_41
*1013 FILLER_32_53
*1014 FILLER_32_65
*1015 FILLER_32_77
*1016 FILLER_32_83
*1017 FILLER_32_85
*1018 FILLER_32_91
*1019 FILLER_33_102
*1020 FILLER_33_110
*1021 FILLER_33_113
*1022 FILLER_33_12
*1023 FILLER_33_125
*1024 FILLER_33_137
*1025 FILLER_33_149
*1026 FILLER_33_161
*1027 FILLER_33_167
*1028 FILLER_33_169
*1029 FILLER_33_181
*1030 FILLER_33_193
*1031 FILLER_33_20
*1032 FILLER_33_205
*1033 FILLER_33_217
*1034 FILLER_33_223
*1035 FILLER_33_225
*1036 FILLER_33_237
*1037 FILLER_33_249
*1038 FILLER_33_261
*1039 FILLER_33_273
*1040 FILLER_33_279
*1041 FILLER_33_281
*1042 FILLER_33_293
*1043 FILLER_33_3
*1044 FILLER_33_32
*1045 FILLER_33_44
*1046 FILLER_33_50
*1047 FILLER_33_57
*1048 FILLER_33_61
*1049 FILLER_33_65
*1050 FILLER_33_90
*1051 FILLER_34_100
*1052 FILLER_34_112
*1053 FILLER_34_120
*1054 FILLER_34_128
*1055 FILLER_34_141
*1056 FILLER_34_153
*1057 FILLER_34_165
*1058 FILLER_34_177
*1059 FILLER_34_189
*1060 FILLER_34_195
*1061 FILLER_34_197
*1062 FILLER_34_209
*1063 FILLER_34_21
*1064 FILLER_34_221
*1065 FILLER_34_233
*1066 FILLER_34_245
*1067 FILLER_34_251
*1068 FILLER_34_253
*1069 FILLER_34_265
*1070 FILLER_34_27
*1071 FILLER_34_277
*1072 FILLER_34_289
*1073 FILLER_34_29
*1074 FILLER_34_297
*1075 FILLER_34_3
*1076 FILLER_34_41
*1077 FILLER_34_53
*1078 FILLER_34_65
*1079 FILLER_34_77
*1080 FILLER_34_83
*1081 FILLER_34_88
*1082 FILLER_34_9
*1083 FILLER_35_105
*1084 FILLER_35_111
*1085 FILLER_35_113
*1086 FILLER_35_125
*1087 FILLER_35_137
*1088 FILLER_35_149
*1089 FILLER_35_161
*1090 FILLER_35_167
*1091 FILLER_35_169
*1092 FILLER_35_181
*1093 FILLER_35_193
*1094 FILLER_35_205
*1095 FILLER_35_21
*1096 FILLER_35_217
*1097 FILLER_35_223
*1098 FILLER_35_225
*1099 FILLER_35_237
*1100 FILLER_35_249
*1101 FILLER_35_261
*1102 FILLER_35_273
*1103 FILLER_35_279
*1104 FILLER_35_281
*1105 FILLER_35_29
*1106 FILLER_35_293
*1107 FILLER_35_3
*1108 FILLER_35_38
*1109 FILLER_35_50
*1110 FILLER_35_57
*1111 FILLER_35_69
*1112 FILLER_35_81
*1113 FILLER_35_9
*1114 FILLER_35_93
*1115 FILLER_36_109
*1116 FILLER_36_121
*1117 FILLER_36_127
*1118 FILLER_36_133
*1119 FILLER_36_139
*1120 FILLER_36_141
*1121 FILLER_36_15
*1122 FILLER_36_153
*1123 FILLER_36_165
*1124 FILLER_36_177
*1125 FILLER_36_189
*1126 FILLER_36_195
*1127 FILLER_36_197
*1128 FILLER_36_209
*1129 FILLER_36_221
*1130 FILLER_36_233
*1131 FILLER_36_245
*1132 FILLER_36_251
*1133 FILLER_36_253
*1134 FILLER_36_265
*1135 FILLER_36_27
*1136 FILLER_36_277
*1137 FILLER_36_289
*1138 FILLER_36_29
*1139 FILLER_36_297
*1140 FILLER_36_3
*1141 FILLER_36_41
*1142 FILLER_36_53
*1143 FILLER_36_65
*1144 FILLER_36_77
*1145 FILLER_36_83
*1146 FILLER_36_85
*1147 FILLER_36_97
*1148 FILLER_37_105
*1149 FILLER_37_111
*1150 FILLER_37_113
*1151 FILLER_37_125
*1152 FILLER_37_137
*1153 FILLER_37_149
*1154 FILLER_37_154
*1155 FILLER_37_166
*1156 FILLER_37_169
*1157 FILLER_37_181
*1158 FILLER_37_193
*1159 FILLER_37_20
*1160 FILLER_37_205
*1161 FILLER_37_217
*1162 FILLER_37_223
*1163 FILLER_37_225
*1164 FILLER_37_237
*1165 FILLER_37_249
*1166 FILLER_37_261
*1167 FILLER_37_273
*1168 FILLER_37_279
*1169 FILLER_37_281
*1170 FILLER_37_293
*1171 FILLER_37_3
*1172 FILLER_37_32
*1173 FILLER_37_44
*1174 FILLER_37_57
*1175 FILLER_37_69
*1176 FILLER_37_8
*1177 FILLER_37_81
*1178 FILLER_37_93
*1179 FILLER_38_10
*1180 FILLER_38_109
*1181 FILLER_38_121
*1182 FILLER_38_133
*1183 FILLER_38_139
*1184 FILLER_38_141
*1185 FILLER_38_153
*1186 FILLER_38_165
*1187 FILLER_38_177
*1188 FILLER_38_189
*1189 FILLER_38_195
*1190 FILLER_38_197
*1191 FILLER_38_209
*1192 FILLER_38_22
*1193 FILLER_38_221
*1194 FILLER_38_233
*1195 FILLER_38_245
*1196 FILLER_38_251
*1197 FILLER_38_253
*1198 FILLER_38_265
*1199 FILLER_38_277
*1200 FILLER_38_289
*1201 FILLER_38_29
*1202 FILLER_38_297
*1203 FILLER_38_3
*1204 FILLER_38_41
*1205 FILLER_38_53
*1206 FILLER_38_67
*1207 FILLER_38_79
*1208 FILLER_38_83
*1209 FILLER_38_85
*1210 FILLER_38_97
*1211 FILLER_39_105
*1212 FILLER_39_111
*1213 FILLER_39_113
*1214 FILLER_39_117
*1215 FILLER_39_125
*1216 FILLER_39_137
*1217 FILLER_39_145
*1218 FILLER_39_15
*1219 FILLER_39_151
*1220 FILLER_39_163
*1221 FILLER_39_167
*1222 FILLER_39_169
*1223 FILLER_39_181
*1224 FILLER_39_193
*1225 FILLER_39_205
*1226 FILLER_39_217
*1227 FILLER_39_223
*1228 FILLER_39_225
*1229 FILLER_39_237
*1230 FILLER_39_249
*1231 FILLER_39_261
*1232 FILLER_39_27
*1233 FILLER_39_273
*1234 FILLER_39_279
*1235 FILLER_39_281
*1236 FILLER_39_293
*1237 FILLER_39_3
*1238 FILLER_39_39
*1239 FILLER_39_51
*1240 FILLER_39_55
*1241 FILLER_39_57
*1242 FILLER_39_69
*1243 FILLER_39_81
*1244 FILLER_39_93
*1245 FILLER_3_102
*1246 FILLER_3_110
*1247 FILLER_3_113
*1248 FILLER_3_139
*1249 FILLER_3_163
*1250 FILLER_3_167
*1251 FILLER_3_169
*1252 FILLER_3_181
*1253 FILLER_3_193
*1254 FILLER_3_205
*1255 FILLER_3_217
*1256 FILLER_3_223
*1257 FILLER_3_225
*1258 FILLER_3_237
*1259 FILLER_3_249
*1260 FILLER_3_261
*1261 FILLER_3_273
*1262 FILLER_3_279
*1263 FILLER_3_28
*1264 FILLER_3_281
*1265 FILLER_3_293
*1266 FILLER_3_3
*1267 FILLER_3_52
*1268 FILLER_3_57
*1269 FILLER_3_63
*1270 FILLER_3_7
*1271 FILLER_3_88
*1272 FILLER_3_95
*1273 FILLER_40_109
*1274 FILLER_40_121
*1275 FILLER_40_131
*1276 FILLER_40_139
*1277 FILLER_40_141
*1278 FILLER_40_15
*1279 FILLER_40_153
*1280 FILLER_40_165
*1281 FILLER_40_177
*1282 FILLER_40_189
*1283 FILLER_40_195
*1284 FILLER_40_197
*1285 FILLER_40_209
*1286 FILLER_40_221
*1287 FILLER_40_233
*1288 FILLER_40_245
*1289 FILLER_40_251
*1290 FILLER_40_253
*1291 FILLER_40_265
*1292 FILLER_40_27
*1293 FILLER_40_277
*1294 FILLER_40_289
*1295 FILLER_40_29
*1296 FILLER_40_297
*1297 FILLER_40_3
*1298 FILLER_40_41
*1299 FILLER_40_53
*1300 FILLER_40_65
*1301 FILLER_40_77
*1302 FILLER_40_83
*1303 FILLER_40_85
*1304 FILLER_40_97
*1305 FILLER_41_108
*1306 FILLER_41_113
*1307 FILLER_41_125
*1308 FILLER_41_137
*1309 FILLER_41_149
*1310 FILLER_41_15
*1311 FILLER_41_161
*1312 FILLER_41_167
*1313 FILLER_41_169
*1314 FILLER_41_181
*1315 FILLER_41_193
*1316 FILLER_41_205
*1317 FILLER_41_217
*1318 FILLER_41_223
*1319 FILLER_41_225
*1320 FILLER_41_237
*1321 FILLER_41_249
*1322 FILLER_41_261
*1323 FILLER_41_27
*1324 FILLER_41_273
*1325 FILLER_41_279
*1326 FILLER_41_281
*1327 FILLER_41_293
*1328 FILLER_41_3
*1329 FILLER_41_39
*1330 FILLER_41_51
*1331 FILLER_41_55
*1332 FILLER_41_57
*1333 FILLER_41_72
*1334 FILLER_41_84
*1335 FILLER_41_96
*1336 FILLER_42_10
*1337 FILLER_42_109
*1338 FILLER_42_121
*1339 FILLER_42_133
*1340 FILLER_42_139
*1341 FILLER_42_141
*1342 FILLER_42_153
*1343 FILLER_42_165
*1344 FILLER_42_177
*1345 FILLER_42_189
*1346 FILLER_42_195
*1347 FILLER_42_197
*1348 FILLER_42_209
*1349 FILLER_42_22
*1350 FILLER_42_221
*1351 FILLER_42_233
*1352 FILLER_42_245
*1353 FILLER_42_251
*1354 FILLER_42_253
*1355 FILLER_42_265
*1356 FILLER_42_277
*1357 FILLER_42_289
*1358 FILLER_42_29
*1359 FILLER_42_297
*1360 FILLER_42_3
*1361 FILLER_42_44
*1362 FILLER_42_56
*1363 FILLER_42_68
*1364 FILLER_42_80
*1365 FILLER_42_85
*1366 FILLER_42_97
*1367 FILLER_43_105
*1368 FILLER_43_111
*1369 FILLER_43_113
*1370 FILLER_43_125
*1371 FILLER_43_133
*1372 FILLER_43_138
*1373 FILLER_43_15
*1374 FILLER_43_150
*1375 FILLER_43_162
*1376 FILLER_43_169
*1377 FILLER_43_181
*1378 FILLER_43_193
*1379 FILLER_43_205
*1380 FILLER_43_217
*1381 FILLER_43_223
*1382 FILLER_43_225
*1383 FILLER_43_237
*1384 FILLER_43_249
*1385 FILLER_43_261
*1386 FILLER_43_27
*1387 FILLER_43_273
*1388 FILLER_43_279
*1389 FILLER_43_281
*1390 FILLER_43_293
*1391 FILLER_43_3
*1392 FILLER_43_31
*1393 FILLER_43_43
*1394 FILLER_43_55
*1395 FILLER_43_57
*1396 FILLER_43_69
*1397 FILLER_43_81
*1398 FILLER_43_93
*1399 FILLER_44_10
*1400 FILLER_44_109
*1401 FILLER_44_121
*1402 FILLER_44_133
*1403 FILLER_44_139
*1404 FILLER_44_141
*1405 FILLER_44_153
*1406 FILLER_44_165
*1407 FILLER_44_17
*1408 FILLER_44_177
*1409 FILLER_44_189
*1410 FILLER_44_195
*1411 FILLER_44_197
*1412 FILLER_44_209
*1413 FILLER_44_221
*1414 FILLER_44_233
*1415 FILLER_44_245
*1416 FILLER_44_25
*1417 FILLER_44_251
*1418 FILLER_44_253
*1419 FILLER_44_265
*1420 FILLER_44_277
*1421 FILLER_44_289
*1422 FILLER_44_29
*1423 FILLER_44_297
*1424 FILLER_44_41
*1425 FILLER_44_53
*1426 FILLER_44_65
*1427 FILLER_44_77
*1428 FILLER_44_83
*1429 FILLER_44_85
*1430 FILLER_44_97
*1431 FILLER_45_105
*1432 FILLER_45_111
*1433 FILLER_45_113
*1434 FILLER_45_125
*1435 FILLER_45_137
*1436 FILLER_45_145
*1437 FILLER_45_149
*1438 FILLER_45_15
*1439 FILLER_45_161
*1440 FILLER_45_167
*1441 FILLER_45_169
*1442 FILLER_45_181
*1443 FILLER_45_193
*1444 FILLER_45_205
*1445 FILLER_45_217
*1446 FILLER_45_223
*1447 FILLER_45_225
*1448 FILLER_45_237
*1449 FILLER_45_249
*1450 FILLER_45_261
*1451 FILLER_45_27