*SPEF "ieee 1481-1999"
*DESIGN "tt2_tholin_namebadge"
*DATE "11:11:11 Fri 11 11, 1111"
*VENDOR "OpenRCX"
*PROGRAM "Parallel Extraction"
*VERSION "1.0"
*DESIGN_FLOW "NAME_SCOPE LOCAL" "PIN_CAP NONE"
*DIVIDER /
*DELIMITER :
*BUS_DELIMITER []
*T_UNIT 1 NS
*C_UNIT 1 PF
*R_UNIT 1 OHM
*L_UNIT 1 HENRY

*NAME_MAP
*1 io_in[0]
*2 io_in[1]
*3 io_in[2]
*4 io_in[3]
*5 io_in[4]
*6 io_in[5]
*7 io_in[6]
*8 io_in[7]
*9 io_out[0]
*10 io_out[1]
*11 io_out[2]
*12 io_out[3]
*13 io_out[4]
*14 io_out[5]
*15 io_out[6]
*16 io_out[7]
*19 _000_
*20 _001_
*21 _002_
*22 _003_
*23 _004_
*24 _005_
*25 _006_
*26 _007_
*27 _008_
*28 _009_
*29 _010_
*30 _011_
*31 _012_
*32 _013_
*33 _014_
*34 _015_
*35 _016_
*36 _017_
*37 _018_
*38 _019_
*39 _020_
*40 _021_
*41 _022_
*42 _023_
*43 _024_
*44 _025_
*45 _026_
*46 _027_
*47 _028_
*48 _029_
*49 _030_
*50 _031_
*51 _032_
*52 _033_
*53 _034_
*54 _035_
*55 _036_
*56 _037_
*57 _038_
*58 _039_
*59 _040_
*60 _041_
*61 _042_
*62 _043_
*63 _044_
*64 _045_
*65 _046_
*66 _047_
*67 _048_
*68 _049_
*69 _050_
*70 _051_
*71 _052_
*72 _053_
*73 _054_
*74 _055_
*75 _056_
*76 _057_
*77 _058_
*78 _059_
*79 _060_
*80 _061_
*81 _062_
*82 _063_
*83 _064_
*84 _065_
*85 _066_
*86 _067_
*87 _068_
*88 _069_
*89 _070_
*90 _071_
*91 _072_
*92 _073_
*93 _074_
*94 _075_
*95 _076_
*96 _077_
*97 _078_
*98 _079_
*99 _080_
*100 _081_
*101 _082_
*102 _083_
*103 _084_
*104 _085_
*105 _086_
*106 _087_
*107 _088_
*108 _089_
*109 _090_
*110 _091_
*111 _092_
*112 _093_
*113 _094_
*114 _095_
*115 _096_
*116 _097_
*117 _098_
*118 _099_
*119 _100_
*120 _101_
*121 _102_
*122 _103_
*123 _104_
*124 _105_
*125 _106_
*126 _107_
*127 _108_
*128 _109_
*129 _110_
*130 _111_
*131 _112_
*132 _113_
*133 _114_
*134 _115_
*135 _116_
*136 _117_
*137 _118_
*138 _119_
*139 _120_
*140 _121_
*141 _122_
*142 _123_
*143 _124_
*144 _125_
*145 _126_
*146 _127_
*147 _128_
*148 _129_
*149 _130_
*150 _131_
*151 _132_
*152 _133_
*153 _134_
*154 _135_
*155 _136_
*156 _137_
*157 _138_
*158 _139_
*159 _140_
*160 _141_
*161 _142_
*162 _143_
*163 _144_
*164 _145_
*165 _146_
*166 _147_
*167 _148_
*168 _149_
*169 _150_
*170 _151_
*171 _152_
*172 _153_
*173 _154_
*174 _155_
*175 _156_
*176 _157_
*177 _158_
*178 _159_
*179 _160_
*180 _161_
*181 _162_
*182 _163_
*183 _164_
*184 _165_
*185 _166_
*186 _167_
*187 _168_
*188 _169_
*189 _170_
*190 _171_
*191 _172_
*192 _173_
*193 _174_
*194 _175_
*195 _176_
*196 _177_
*197 _178_
*198 _179_
*199 _180_
*200 _181_
*201 _182_
*202 _183_
*203 _184_
*204 _185_
*205 _186_
*206 _187_
*207 _188_
*208 _189_
*209 _190_
*210 _191_
*211 _192_
*212 _193_
*213 _194_
*214 _195_
*215 _196_
*216 _197_
*217 _198_
*218 _199_
*219 _200_
*220 _201_
*221 _202_
*222 _203_
*223 _204_
*224 _205_
*225 _206_
*226 _207_
*227 _208_
*228 _209_
*229 _210_
*230 _211_
*231 _212_
*232 _213_
*233 _214_
*234 _215_
*235 _216_
*236 _217_
*237 _218_
*238 _219_
*239 _220_
*240 _221_
*241 _222_
*242 _223_
*243 _224_
*244 _225_
*245 _226_
*246 _227_
*247 _228_
*248 _229_
*249 _230_
*250 _231_
*251 _232_
*252 _233_
*253 _234_
*254 _235_
*255 _236_
*256 _237_
*257 _238_
*258 _239_
*259 _240_
*260 _241_
*261 _242_
*262 _243_
*263 _244_
*264 _245_
*265 _246_
*266 _247_
*267 _248_
*268 _249_
*269 _250_
*270 _251_
*271 _252_
*272 _253_
*273 _254_
*274 _255_
*275 _256_
*276 _257_
*277 _258_
*278 _259_
*279 _260_
*280 _261_
*281 _262_
*282 _263_
*283 _264_
*284 _265_
*285 _266_
*286 _267_
*287 _268_
*288 _269_
*289 _270_
*290 _271_
*291 _272_
*292 _273_
*293 _274_
*294 _275_
*295 _276_
*296 _277_
*297 _278_
*298 _279_
*299 _280_
*300 _281_
*301 _282_
*302 _283_
*303 _284_
*304 _285_
*305 _286_
*306 _287_
*307 _288_
*308 _289_
*309 _290_
*310 _291_
*311 _292_
*312 _293_
*313 _294_
*314 _295_
*315 _296_
*316 _297_
*317 _298_
*318 _299_
*319 _300_
*320 _301_
*321 _302_
*322 _303_
*323 _304_
*324 _305_
*325 _306_
*326 _307_
*327 _308_
*328 _309_
*329 _310_
*330 _311_
*331 _312_
*332 _313_
*333 _314_
*334 _315_
*335 _316_
*336 _317_
*337 _318_
*338 _319_
*339 _320_
*340 _321_
*341 _322_
*342 _323_
*343 _324_
*344 _325_
*345 _326_
*346 _327_
*347 _328_
*348 _329_
*349 _330_
*350 _331_
*351 _332_
*352 _333_
*353 _334_
*354 _335_
*355 _336_
*356 _337_
*357 _338_
*358 _339_
*359 _340_
*360 _341_
*361 _342_
*362 _343_
*363 _344_
*364 _345_
*365 _346_
*366 _347_
*367 _348_
*368 _349_
*369 _350_
*370 _351_
*371 _352_
*372 _353_
*373 _354_
*374 _355_
*375 _356_
*376 _357_
*377 _358_
*378 _359_
*379 _360_
*380 _361_
*381 _362_
*382 _363_
*383 _364_
*384 _365_
*385 _366_
*386 _367_
*387 _368_
*388 _369_
*389 _370_
*390 _371_
*391 _372_
*392 _373_
*393 _374_
*394 _375_
*395 _376_
*396 _377_
*397 _378_
*398 _379_
*399 _380_
*400 _381_
*401 _382_
*402 _383_
*403 _384_
*404 _385_
*405 _386_
*406 _387_
*407 _388_
*408 _389_
*409 _390_
*410 _391_
*411 _392_
*412 _393_
*413 _394_
*414 _395_
*415 _396_
*416 _397_
*417 _398_
*418 _399_
*419 _400_
*420 _401_
*421 _402_
*422 _403_
*423 _404_
*424 _405_
*425 _406_
*426 _407_
*427 _408_
*428 _409_
*429 _410_
*430 _411_
*431 _412_
*432 _413_
*433 _414_
*434 _415_
*435 _416_
*436 _417_
*437 _418_
*438 _419_
*439 _420_
*440 _421_
*441 _422_
*442 _423_
*443 _424_
*444 _425_
*445 _426_
*446 _427_
*447 _428_
*448 _429_
*449 _430_
*450 _431_
*451 _432_
*452 _433_
*453 _434_
*454 _435_
*455 _436_
*456 _437_
*457 _438_
*458 _439_
*459 _440_
*460 _441_
*461 _442_
*462 _443_
*463 _444_
*464 _445_
*465 _446_
*466 _447_
*467 _448_
*468 _449_
*469 _450_
*470 _451_
*471 _452_
*472 _453_
*473 _454_
*474 _455_
*475 _456_
*476 _457_
*477 _458_
*478 _459_
*479 _460_
*480 _461_
*481 _462_
*482 clknet_0_io_in[0]
*483 clknet_1_0__leaf_io_in[0]
*484 clknet_1_1__leaf_io_in[0]
*485 lcd\.D4
*486 lcd\.D5
*487 lcd\.D6
*488 lcd\.D7
*489 lcd\.E
*490 lcd\.LED0
*491 lcd\.RS
*492 lcd\.num_state\[0\]
*493 lcd\.num_state\[1\]
*494 lcd\.rom_addr\[0\]
*495 lcd\.rom_addr\[1\]
*496 lcd\.rom_addr\[3\]
*497 lcd\.rom_addr\[4\]
*498 lcd\.rom_addr\[5\]
*499 lcd\.rom_addr\[6\]
*500 lcd\.round\[0\]
*501 lcd\.round\[1\]
*502 lcd\.seq\[0\]
*503 lcd\.seq\[1\]
*504 lcd\.seq\[2\]
*505 lcd\.seq\[3\]
*506 lcd\.seq\[4\]
*507 lcd\.seq\[5\]
*508 lcd\.seq\[6\]
*509 lcd\.seq\[7\]
*510 lcd\.toggle
*511 net1
*512 net2
*513 net3
*514 net4
*515 net5
*516 FILLER_0_109
*517 FILLER_0_113
*518 FILLER_0_125
*519 FILLER_0_137
*520 FILLER_0_141
*521 FILLER_0_153
*522 FILLER_0_165
*523 FILLER_0_169
*524 FILLER_0_181
*525 FILLER_0_193
*526 FILLER_0_197
*527 FILLER_0_209
*528 FILLER_0_221
*529 FILLER_0_225
*530 FILLER_0_237
*531 FILLER_0_24
*532 FILLER_0_249
*533 FILLER_0_253
*534 FILLER_0_265
*535 FILLER_0_277
*536 FILLER_0_281
*537 FILLER_0_293
*538 FILLER_0_3
*539 FILLER_0_45
*540 FILLER_0_53
*541 FILLER_0_7
*542 FILLER_0_73
*543 FILLER_0_81
*544 FILLER_0_85
*545 FILLER_0_97
*546 FILLER_10_105
*547 FILLER_10_117
*548 FILLER_10_129
*549 FILLER_10_137
*550 FILLER_10_141
*551 FILLER_10_153
*552 FILLER_10_165
*553 FILLER_10_177
*554 FILLER_10_189
*555 FILLER_10_195
*556 FILLER_10_197
*557 FILLER_10_209
*558 FILLER_10_221
*559 FILLER_10_233
*560 FILLER_10_24
*561 FILLER_10_245
*562 FILLER_10_251
*563 FILLER_10_253
*564 FILLER_10_265
*565 FILLER_10_277
*566 FILLER_10_289
*567 FILLER_10_29
*568 FILLER_10_297
*569 FILLER_10_3
*570 FILLER_10_35
*571 FILLER_10_52
*572 FILLER_10_64
*573 FILLER_10_69
*574 FILLER_10_7
*575 FILLER_10_81
*576 FILLER_10_85
*577 FILLER_10_91
*578 FILLER_10_99
*579 FILLER_11_101
*580 FILLER_11_108
*581 FILLER_11_113
*582 FILLER_11_125
*583 FILLER_11_137
*584 FILLER_11_14
*585 FILLER_11_149
*586 FILLER_11_161
*587 FILLER_11_167
*588 FILLER_11_169
*589 FILLER_11_181
*590 FILLER_11_193
*591 FILLER_11_205
*592 FILLER_11_217
*593 FILLER_11_223
*594 FILLER_11_225
*595 FILLER_11_237
*596 FILLER_11_249
*597 FILLER_11_261
*598 FILLER_11_273
*599 FILLER_11_279
*600 FILLER_11_281
*601 FILLER_11_293
*602 FILLER_11_36
*603 FILLER_11_48
*604 FILLER_11_57
*605 FILLER_11_6
*606 FILLER_11_69
*607 FILLER_11_82
*608 FILLER_11_92
*609 FILLER_12_102
*610 FILLER_12_114
*611 FILLER_12_126
*612 FILLER_12_138
*613 FILLER_12_141
*614 FILLER_12_153
*615 FILLER_12_165
*616 FILLER_12_177
*617 FILLER_12_189
*618 FILLER_12_195
*619 FILLER_12_197
*620 FILLER_12_209
*621 FILLER_12_221
*622 FILLER_12_233
*623 FILLER_12_24
*624 FILLER_12_245
*625 FILLER_12_251
*626 FILLER_12_253
*627 FILLER_12_265
*628 FILLER_12_277
*629 FILLER_12_289
*630 FILLER_12_297
*631 FILLER_12_3
*632 FILLER_12_45
*633 FILLER_12_57
*634 FILLER_12_66
*635 FILLER_12_7
*636 FILLER_12_74
*637 FILLER_12_80
*638 FILLER_12_92
*639 FILLER_12_96
*640 FILLER_13_106
*641 FILLER_13_113
*642 FILLER_13_125
*643 FILLER_13_137
*644 FILLER_13_149
*645 FILLER_13_15
*646 FILLER_13_161
*647 FILLER_13_167
*648 FILLER_13_169
*649 FILLER_13_181
*650 FILLER_13_193
*651 FILLER_13_205
*652 FILLER_13_217
*653 FILLER_13_223
*654 FILLER_13_225
*655 FILLER_13_237
*656 FILLER_13_249
*657 FILLER_13_261
*658 FILLER_13_273
*659 FILLER_13_279
*660 FILLER_13_281
*661 FILLER_13_293
*662 FILLER_13_3
*663 FILLER_13_32
*664 FILLER_13_44
*665 FILLER_13_57
*666 FILLER_13_67
*667 FILLER_13_71
*668 FILLER_13_82
*669 FILLER_13_96
*670 FILLER_14_102
*671 FILLER_14_114
*672 FILLER_14_121
*673 FILLER_14_133
*674 FILLER_14_139
*675 FILLER_14_141
*676 FILLER_14_153
*677 FILLER_14_165
*678 FILLER_14_177
*679 FILLER_14_189
*680 FILLER_14_19
*681 FILLER_14_195
*682 FILLER_14_197
*683 FILLER_14_209
*684 FILLER_14_221
*685 FILLER_14_233
*686 FILLER_14_245
*687 FILLER_14_251
*688 FILLER_14_253
*689 FILLER_14_265
*690 FILLER_14_27
*691 FILLER_14_277
*692 FILLER_14_289
*693 FILLER_14_29
*694 FILLER_14_297
*695 FILLER_14_41
*696 FILLER_14_49
*697 FILLER_14_56
*698 FILLER_14_67
*699 FILLER_14_71
*700 FILLER_14_80
*701 FILLER_14_88
*702 FILLER_15_108
*703 FILLER_15_123
*704 FILLER_15_135
*705 FILLER_15_147
*706 FILLER_15_159
*707 FILLER_15_167
*708 FILLER_15_169
*709 FILLER_15_181
*710 FILLER_15_19
*711 FILLER_15_193
*712 FILLER_15_205
*713 FILLER_15_217
*714 FILLER_15_223
*715 FILLER_15_225
*716 FILLER_15_237
*717 FILLER_15_249
*718 FILLER_15_261
*719 FILLER_15_273
*720 FILLER_15_279
*721 FILLER_15_281
*722 FILLER_15_293
*723 FILLER_15_31
*724 FILLER_15_35
*725 FILLER_15_39
*726 FILLER_15_50
*727 FILLER_15_66
*728 FILLER_15_76
*729 FILLER_15_84
*730 FILLER_15_90
*731 FILLER_16_106
*732 FILLER_16_12
*733 FILLER_16_120
*734 FILLER_16_130
*735 FILLER_16_138
*736 FILLER_16_141
*737 FILLER_16_153
*738 FILLER_16_165
*739 FILLER_16_177
*740 FILLER_16_189
*741 FILLER_16_19
*742 FILLER_16_195
*743 FILLER_16_197
*744 FILLER_16_209
*745 FILLER_16_221
*746 FILLER_16_233
*747 FILLER_16_245
*748 FILLER_16_251
*749 FILLER_16_253
*750 FILLER_16_265
*751 FILLER_16_27
*752 FILLER_16_277
*753 FILLER_16_289
*754 FILLER_16_29
*755 FILLER_16_297
*756 FILLER_16_3
*757 FILLER_16_36
*758 FILLER_16_47
*759 FILLER_16_58
*760 FILLER_16_69
*761 FILLER_16_80
*762 FILLER_16_90
*763 FILLER_17_107
*764 FILLER_17_111
*765 FILLER_17_120
*766 FILLER_17_132
*767 FILLER_17_144
*768 FILLER_17_156
*769 FILLER_17_169
*770 FILLER_17_17
*771 FILLER_17_181
*772 FILLER_17_193
*773 FILLER_17_205
*774 FILLER_17_217
*775 FILLER_17_223
*776 FILLER_17_225
*777 FILLER_17_237
*778 FILLER_17_249
*779 FILLER_17_26
*780 FILLER_17_261
*781 FILLER_17_273
*782 FILLER_17_279
*783 FILLER_17_281
*784 FILLER_17_293
*785 FILLER_17_3
*786 FILLER_17_35
*787 FILLER_17_49
*788 FILLER_17_55
*789 FILLER_17_57
*790 FILLER_17_65
*791 FILLER_17_73
*792 FILLER_17_82
*793 FILLER_17_9
*794 FILLER_17_90
*795 FILLER_17_99
*796 FILLER_18_106
*797 FILLER_18_115
*798 FILLER_18_127
*799 FILLER_18_13
*800 FILLER_18_139
*801 FILLER_18_141
*802 FILLER_18_153
*803 FILLER_18_165
*804 FILLER_18_177
*805 FILLER_18_189
*806 FILLER_18_195
*807 FILLER_18_197
*808 FILLER_18_209
*809 FILLER_18_221
*810 FILLER_18_233
*811 FILLER_18_24
*812 FILLER_18_245
*813 FILLER_18_251
*814 FILLER_18_253
*815 FILLER_18_265
*816 FILLER_18_277
*817 FILLER_18_289
*818 FILLER_18_29
*819 FILLER_18_297
*820 FILLER_18_3
*821 FILLER_18_33
*822 FILLER_18_37
*823 FILLER_18_51
*824 FILLER_18_61
*825 FILLER_18_7
*826 FILLER_18_73
*827 FILLER_18_80
*828 FILLER_18_85
*829 FILLER_18_99
*830 FILLER_19_10
*831 FILLER_19_103
*832 FILLER_19_111
*833 FILLER_19_119
*834 FILLER_19_131
*835 FILLER_19_14
*836 FILLER_19_143
*837 FILLER_19_155
*838 FILLER_19_167
*839 FILLER_19_169
*840 FILLER_19_18
*841 FILLER_19_181
*842 FILLER_19_193
*843 FILLER_19_205
*844 FILLER_19_217
*845 FILLER_19_223
*846 FILLER_19_225
*847 FILLER_19_237
*848 FILLER_19_249
*849 FILLER_19_25
*850 FILLER_19_261
*851 FILLER_19_273
*852 FILLER_19_279
*853 FILLER_19_281
*854 FILLER_19_293
*855 FILLER_19_3
*856 FILLER_19_41
*857 FILLER_19_50
*858 FILLER_19_63
*859 FILLER_19_78
*860 FILLER_19_89
*861 FILLER_1_109
*862 FILLER_1_113
*863 FILLER_1_125
*864 FILLER_1_137
*865 FILLER_1_149
*866 FILLER_1_15
*867 FILLER_1_161
*868 FILLER_1_167
*869 FILLER_1_169
*870 FILLER_1_181
*871 FILLER_1_193
*872 FILLER_1_205
*873 FILLER_1_217
*874 FILLER_1_223
*875 FILLER_1_225
*876 FILLER_1_237
*877 FILLER_1_249
*878 FILLER_1_261
*879 FILLER_1_273
*880 FILLER_1_279
*881 FILLER_1_281
*882 FILLER_1_293
*883 FILLER_1_3
*884 FILLER_1_32
*885 FILLER_1_52
*886 FILLER_1_73
*887 FILLER_1_85
*888 FILLER_1_97
*889 FILLER_20_105
*890 FILLER_20_114
*891 FILLER_20_126
*892 FILLER_20_13
*893 FILLER_20_138
*894 FILLER_20_141
*895 FILLER_20_153
*896 FILLER_20_165
*897 FILLER_20_17
*898 FILLER_20_177
*899 FILLER_20_189
*900 FILLER_20_195
*901 FILLER_20_197
*902 FILLER_20_209
*903 FILLER_20_221
*904 FILLER_20_233
*905 FILLER_20_24
*906 FILLER_20_245
*907 FILLER_20_251
*908 FILLER_20_253
*909 FILLER_20_265
*910 FILLER_20_277
*911 FILLER_20_289
*912 FILLER_20_297
*913 FILLER_20_3
*914 FILLER_20_32
*915 FILLER_20_46
*916 FILLER_20_60
*917 FILLER_20_68
*918 FILLER_20_77
*919 FILLER_20_83
*920 FILLER_20_93
*921 FILLER_21_102
*922 FILLER_21_110
*923 FILLER_21_118
*924 FILLER_21_125
*925 FILLER_21_137
*926 FILLER_21_149
*927 FILLER_21_161
*928 FILLER_21_167
*929 FILLER_21_169
*930 FILLER_21_181
*931 FILLER_21_19
*932 FILLER_21_193
*933 FILLER_21_205
*934 FILLER_21_217
*935 FILLER_21_223
*936 FILLER_21_225
*937 FILLER_21_237
*938 FILLER_21_249
*939 FILLER_21_261
*940 FILLER_21_273
*941 FILLER_21_279
*942 FILLER_21_281
*943 FILLER_21_293
*944 FILLER_21_33
*945 FILLER_21_44
*946 FILLER_21_52
*947 FILLER_21_62
*948 FILLER_21_7
*949 FILLER_21_76
*950 FILLER_21_84
*951 FILLER_21_92
*952 FILLER_22_107
*953 FILLER_22_12
*954 FILLER_22_121
*955 FILLER_22_128
*956 FILLER_22_141
*957 FILLER_22_153
*958 FILLER_22_165
*959 FILLER_22_177
*960 FILLER_22_18
*961 FILLER_22_189
*962 FILLER_22_195
*963 FILLER_22_197
*964 FILLER_22_209
*965 FILLER_22_221
*966 FILLER_22_233
*967 FILLER_22_24
*968 FILLER_22_245
*969 FILLER_22_251
*970 FILLER_22_253
*971 FILLER_22_265
*972 FILLER_22_277
*973 FILLER_22_289
*974 FILLER_22_297
*975 FILLER_22_3
*976 FILLER_22_33
*977 FILLER_22_47
*978 FILLER_22_55
*979 FILLER_22_63
*980 FILLER_22_69
*981 FILLER_22_78
*982 FILLER_22_93
*983 FILLER_23_108
*984 FILLER_23_11
*985 FILLER_23_119
*986 FILLER_23_127
*987 FILLER_23_139
*988 FILLER_23_151
*989 FILLER_23_163
*990 FILLER_23_167
*991 FILLER_23_169
*992 FILLER_23_181
*993 FILLER_23_193
*994 FILLER_23_205
*995 FILLER_23_217
*996 FILLER_23_223
*997 FILLER_23_225
*998 FILLER_23_237
*999 FILLER_23_24
*1000 FILLER_23_249
*1001 FILLER_23_261
*1002 FILLER_23_273
*1003 FILLER_23_279
*1004 FILLER_23_281
*1005 FILLER_23_293
*1006 FILLER_23_38
*1007 FILLER_23_52
*1008 FILLER_23_67
*1009 FILLER_23_79
*1010 FILLER_23_87
*1011 FILLER_23_94
*1012 FILLER_24_106
*1013 FILLER_24_114
*1014 FILLER_24_121
*1015 FILLER_24_13
*1016 FILLER_24_133
*1017 FILLER_24_139
*1018 FILLER_24_141
*1019 FILLER_24_153
*1020 FILLER_24_165
*1021 FILLER_24_177
*1022 FILLER_24_189
*1023 FILLER_24_195
*1024 FILLER_24_197
*1025 FILLER_24_209
*1026 FILLER_24_221
*1027 FILLER_24_233
*1028 FILLER_24_24
*1029 FILLER_24_245
*1030 FILLER_24_251
*1031 FILLER_24_253
*1032 FILLER_24_265
*1033 FILLER_24_277
*1034 FILLER_24_289
*1035 FILLER_24_297
*1036 FILLER_24_3
*1037 FILLER_24_38
*1038 FILLER_24_49
*1039 FILLER_24_65
*1040 FILLER_24_77
*1041 FILLER_24_83
*1042 FILLER_24_89
*1043 FILLER_24_99
*1044 FILLER_25_108
*1045 FILLER_25_120
*1046 FILLER_25_132
*1047 FILLER_25_144
*1048 FILLER_25_156
*1049 FILLER_25_169
*1050 FILLER_25_17
*1051 FILLER_25_181
*1052 FILLER_25_193
*1053 FILLER_25_205
*1054 FILLER_25_217
*1055 FILLER_25_223
*1056 FILLER_25_225
*1057 FILLER_25_237
*1058 FILLER_25_249
*1059 FILLER_25_261
*1060 FILLER_25_27
*1061 FILLER_25_273
*1062 FILLER_25_279
*1063 FILLER_25_281
*1064 FILLER_25_293
*1065 FILLER_25_3
*1066 FILLER_25_31
*1067 FILLER_25_37
*1068 FILLER_25_50
*1069 FILLER_25_67
*1070 FILLER_25_83
*1071 FILLER_25_9
*1072 FILLER_25_90
*1073 FILLER_25_99
*1074 FILLER_26_107
*1075 FILLER_26_111
*1076 FILLER_26_125
*1077 FILLER_26_137
*1078 FILLER_26_141
*1079 FILLER_26_153
*1080 FILLER_26_165
*1081 FILLER_26_177
*1082 FILLER_26_189
*1083 FILLER_26_195
*1084 FILLER_26_197
*1085 FILLER_26_209
*1086 FILLER_26_21
*1087 FILLER_26_221
*1088 FILLER_26_233
*1089 FILLER_26_245
*1090 FILLER_26_251
*1091 FILLER_26_253
*1092 FILLER_26_265
*1093 FILLER_26_27
*1094 FILLER_26_277
*1095 FILLER_26_289
*1096 FILLER_26_29
*1097 FILLER_26_297
*1098 FILLER_26_3
*1099 FILLER_26_42
*1100 FILLER_26_60
*1101 FILLER_26_68
*1102 FILLER_26_80
*1103 FILLER_26_85
*1104 FILLER_26_9
*1105 FILLER_26_99
*1106 FILLER_27_101
*1107 FILLER_27_108
*1108 FILLER_27_116
*1109 FILLER_27_128
*1110 FILLER_27_140
*1111 FILLER_27_15
*1112 FILLER_27_152
*1113 FILLER_27_164
*1114 FILLER_27_169
*1115 FILLER_27_181
*1116 FILLER_27_19
*1117 FILLER_27_193
*1118 FILLER_27_205
*1119 FILLER_27_217
*1120 FILLER_27_223
*1121 FILLER_27_225
*1122 FILLER_27_237
*1123 FILLER_27_249
*1124 FILLER_27_261
*1125 FILLER_27_273
*1126 FILLER_27_279
*1127 FILLER_27_281
*1128 FILLER_27_293
*1129 FILLER_27_3
*1130 FILLER_27_30
*1131 FILLER_27_38
*1132 FILLER_27_45
*1133 FILLER_27_53
*1134 FILLER_27_63
*1135 FILLER_27_74
*1136 FILLER_27_85
*1137 FILLER_27_9
*1138 FILLER_27_93
*1139 FILLER_28_103
*1140 FILLER_28_111
*1141 FILLER_28_116
*1142 FILLER_28_126
*1143 FILLER_28_138
*1144 FILLER_28_14
*1145 FILLER_28_141
*1146 FILLER_28_153
*1147 FILLER_28_165
*1148 FILLER_28_177
*1149 FILLER_28_189
*1150 FILLER_28_195
*1151 FILLER_28_197
*1152 FILLER_28_209
*1153 FILLER_28_21
*1154 FILLER_28_221
*1155 FILLER_28_233
*1156 FILLER_28_245
*1157 FILLER_28_251
*1158 FILLER_28_253
*1159 FILLER_28_265
*1160 FILLER_28_27
*1161 FILLER_28_277
*1162 FILLER_28_289
*1163 FILLER_28_297
*1164 FILLER_28_3
*1165 FILLER_28_33
*1166 FILLER_28_52
*1167 FILLER_28_60
*1168 FILLER_28_65
*1169 FILLER_28_71
*1170 FILLER_28_79
*1171 FILLER_28_83
*1172 FILLER_28_85
*1173 FILLER_28_93
*1174 FILLER_29_104
*1175 FILLER_29_120
*1176 FILLER_29_13
*1177 FILLER_29_132
*1178 FILLER_29_144
*1179 FILLER_29_156
*1180 FILLER_29_169
*1181 FILLER_29_17
*1182 FILLER_29_181
*1183 FILLER_29_193
*1184 FILLER_29_205
*1185 FILLER_29_217
*1186 FILLER_29_223
*1187 FILLER_29_225
*1188 FILLER_29_237
*1189 FILLER_29_249
*1190 FILLER_29_25
*1191 FILLER_29_261
*1192 FILLER_29_273
*1193 FILLER_29_279
*1194 FILLER_29_281
*1195 FILLER_29_293
*1196 FILLER_29_3
*1197 FILLER_29_39
*1198 FILLER_29_50
*1199 FILLER_29_60
*1200 FILLER_29_68
*1201 FILLER_29_79
*1202 FILLER_29_89
*1203 FILLER_29_9
*1204 FILLER_29_96
*1205 FILLER_2_109
*1206 FILLER_2_121
*1207 FILLER_2_133
*1208 FILLER_2_139
*1209 FILLER_2_141
*1210 FILLER_2_153
*1211 FILLER_2_165
*1212 FILLER_2_177
*1213 FILLER_2_189
*1214 FILLER_2_195
*1215 FILLER_2_197
*1216 FILLER_2_209
*1217 FILLER_2_221
*1218 FILLER_2_233
*1219 FILLER_2_24
*1220 FILLER_2_245
*1221 FILLER_2_251
*1222 FILLER_2_253
*1223 FILLER_2_265
*1224 FILLER_2_277
*1225 FILLER_2_289
*1226 FILLER_2_29
*1227 FILLER_2_297
*1228 FILLER_2_3
*1229 FILLER_2_35
*1230 FILLER_2_52
*1231 FILLER_2_64
*1232 FILLER_2_7
*1233 FILLER_2_76
*1234 FILLER_2_85
*1235 FILLER_2_97
*1236 FILLER_30_10
*1237 FILLER_30_106
*1238 FILLER_30_118
*1239 FILLER_30_130
*1240 FILLER_30_138
*1241 FILLER_30_141
*1242 FILLER_30_153
*1243 FILLER_30_165
*1244 FILLER_30_177
*1245 FILLER_30_18
*1246 FILLER_30_189
*1247 FILLER_30_195
*1248 FILLER_30_197
*1249 FILLER_30_209
*1250 FILLER_30_221
*1251 FILLER_30_233
*1252 FILLER_30_24
*1253 FILLER_30_245
*1254 FILLER_30_251
*1255 FILLER_30_253
*1256 FILLER_30_265
*1257 FILLER_30_277
*1258 FILLER_30_289
*1259 FILLER_30_29
*1260 FILLER_30_297
*1261 FILLER_30_3
*1262 FILLER_30_36
*1263 FILLER_30_54
*1264 FILLER_30_61
*1265 FILLER_30_71
*1266 FILLER_30_80
*1267 FILLER_30_94
*1268 FILLER_30_98
*1269 FILLER_31_104
*1270 FILLER_31_119
*1271 FILLER_31_123
*1272 FILLER_31_128
*1273 FILLER_31_13
*1274 FILLER_31_140
*1275 FILLER_31_152
*1276 FILLER_31_164
*1277 FILLER_31_169
*1278 FILLER_31_181
*1279 FILLER_31_193
*1280 FILLER_31_205
*1281 FILLER_31_217
*1282 FILLER_31_223
*1283 FILLER_31_225
*1284 FILLER_31_237
*1285 FILLER_31_249
*1286 FILLER_31_25
*1287 FILLER_31_261
*1288 FILLER_31_273
*1289 FILLER_31_279
*1290 FILLER_31_281
*1291 FILLER_31_293
*1292 FILLER_31_3
*1293 FILLER_31_31
*1294 FILLER_31_36
*1295 FILLER_31_47
*1296 FILLER_31_55
*1297 FILLER_31_57
*1298 FILLER_31_69
*1299 FILLER_31_81
*1300 FILLER_31_87
*1301 FILLER_31_99
*1302 FILLER_32_100
*1303 FILLER_32_106
*1304 FILLER_32_11
*1305 FILLER_32_114
*1306 FILLER_32_126
*1307 FILLER_32_138
*1308 FILLER_32_141
*1309 FILLER_32_153
*1310 FILLER_32_165
*1311 FILLER_32_177
*1312 FILLER_32_189
*1313 FILLER_32_195
*1314 FILLER_32_197
*1315 FILLER_32_209
*1316 FILLER_32_221
*1317 FILLER_32_233
*1318 FILLER_32_24
*1319 FILLER_32_245
*1320 FILLER_32_251
*1321 FILLER_32_253
*1322 FILLER_32_265
*1323 FILLER_32_277
*1324 FILLER_32_289
*1325 FILLER_32_29
*1326 FILLER_32_297
*1327 FILLER_32_3
*1328 FILLER_32_39
*1329 FILLER_32_43
*1330 FILLER_32_48
*1331 FILLER_32_56
*1332 FILLER_32_62
*1333 FILLER_32_74
*1334 FILLER_32_82
*1335 FILLER_32_85
*1336 FILLER_33_10
*1337 FILLER_33_108
*1338 FILLER_33_113
*1339 FILLER_33_125
*1340 FILLER_33_137
*1341 FILLER_33_149
*1342 FILLER_33_161
*1343 FILLER_33_167
*1344 FILLER_33_169
*1345 FILLER_33_181
*1346 FILLER_33_193
*1347 FILLER_33_205
*1348 FILLER_33_217
*1349 FILLER_33_22
*1350 FILLER_33_223
*1351 FILLER_33_225
*1352 FILLER_33_237
*1353 FILLER_33_249
*1354 FILLER_33_261
*1355 FILLER_33_273
*1356 FILLER_33_279
*1357 FILLER_33_281
*1358 FILLER_33_293
*1359 FILLER_33_35
*1360 FILLER_33_43
*1361 FILLER_33_50
*1362 FILLER_33_57
*1363 FILLER_33_65
*1364 FILLER_33_73
*1365 FILLER_33_79
*1366 FILLER_33_87
*1367 FILLER_33_98
*1368 FILLER_34_101
*1369 FILLER_34_107
*1370 FILLER_34_112
*1371 FILLER_34_124
*1372 FILLER_34_136
*1373 FILLER_34_141
*1374 FILLER_34_15
*1375 FILLER_34_153
*1376 FILLER_34_165
*1377 FILLER_34_177
*1378 FILLER_34_189
*1379 FILLER_34_195
*1380 FILLER_34_197
*1381 FILLER_34_209
*1382 FILLER_34_221
*1383 FILLER_34_233
*1384 FILLER_34_24
*1385 FILLER_34_245
*1386 FILLER_34_251
*1387 FILLER_34_253
*1388 FILLER_34_265
*1389 FILLER_34_277
*1390 FILLER_34_289
*1391 FILLER_34_29
*1392 FILLER_34_297
*1393 FILLER_34_3
*1394 FILLER_34_37
*1395 FILLER_34_45
*1396 FILLER_34_50
*1397 FILLER_34_57
*1398 FILLER_34_68
*1399 FILLER_34_80
*1400 FILLER_34_90
*1401 FILLER_34_96
*1402 FILLER_35_108
*1403 FILLER_35_120
*1404 FILLER_35_132
*1405 FILLER_35_144
*1406 FILLER_35_152
*1407 FILLER_35_164
*1408 FILLER_35_174
*1409 FILLER_35_186
*1410 FILLER_35_198
*1411 FILLER_35_21
*1412 FILLER_35_210
*1413 FILLER_35_222
*1414 FILLER_35_225
*1415 FILLER_35_237
*1416 FILLER_35_249
*1417 FILLER_35_261
*1418 FILLER_35_273
*1419 FILLER_35_279
*1420 FILLER_35_281
*1421 FILLER_35_293
*1422 FILLER_35_3
*1423 FILLER_35_33
*1424 FILLER_35_51
*1425 FILLER_35_55
*1426 FILLER_35_57
*1427 FILLER_35_63
*1428 FILLER_35_70
*1429 FILLER_35_82
*1430 FILLER_35_9
*1431 FILLER_35_90
*1432 FILLER_36_104
*1433 FILLER_36_108
*1434 FILLER_36_114
*1435 FILLER_36_126
*1436 FILLER_36_133
*1437 FILLER_36_139
*1438 FILLER_36_148
*1439 FILLER_36_154
*1440 FILLER_36_162
*1441 FILLER_36_170
*1442 FILLER_36_179
*1443 FILLER_36_191
*1444 FILLER_36_195
*1445 FILLER_36_197
*1446 FILLER_36_209
*1447 FILLER_36_221
*1448 FILLER_36_233
*1449 FILLER_36_24
*1450 FILLER_36_245
*1451 FILLER_36_251
*1452 FILLER_36_253
*1453 FILLER_36_265
*1454 FILLER_36_277
*1455 FILLER_36_289
*1456 FILLER_36_29
*1457 FILLER_36_297
*1458 FILLER_36_3
*1459 FILLER_36_37
*1460 FILLER_36_51
*1461 FILLER_36_60
*1462 FILLER_36_69
*1463 FILLER_36_80
*1464 FILLER_36_9
*1465 FILLER_36_92
*1466 FILLER_36_98
*1467 FILLER_37_106
*1468 FILLER_37_113
*1469 FILLER_37_125
*1470 FILLER_37_13
*1471 FILLER_37_133
*1472 FILLER_37_139
*1473 FILLER_37_160
*1474 FILLER_37_175
*1475 FILLER_37_183
*1476 FILLER_37_192
*1477 FILLER_37_204
*1478 FILLER_37_216
*1479 FILLER_37_225
*1480 FILLER_37_237
*1481 FILLER_37_249
*1482 FILLER_37_25
*1483 FILLER_37_261
*1484 FILLER_37_273
*1485 FILLER_37_279
*1486 FILLER_37_281
*1487 FILLER_37_293
*1488 FILLER_37_3
*1489 FILLER_37_32
*1490 FILLER_37_44
*1491 FILLER_37_57
*1492 FILLER_37_7
*1493 FILLER_37_71
*1494 FILLER_37_83
*1495 FILLER_37_90
*1496 FILLER_37_98
*1497 FILLER_38_101
*1498 FILLER_38_106
*1499 FILLER_38_118
*1500 FILLER_38_130
*1501 FILLER_38_138
*1502 FILLER_38_14
*1503 FILLER_38_141
*1504 FILLER_38_151
*1505 FILLER_38_159
*1506 FILLER_38_166
*1507 FILLER_38_174
*1508 FILLER_38_182
*1509 FILLER_38_190
*1510 FILLER_38_205
*1511 FILLER_38_217
*1512 FILLER_38_229
*1513 FILLER_38_23
*1514 FILLER_38_241
*1515 FILLER_38_249
*1516 FILLER_38_253
*1517 FILLER_38_265
*1518 FILLER_38_27
*1519 FILLER_38_277
*1520 FILLER_38_289
*1521 FILLER_38_297
*1522 FILLER_38_3
*1523 FILLER_38_37
*1524 FILLER_38_47
*1525 FILLER_38_59
*1526 FILLER_38_64
*1527 FILLER_38_76
*1528 FILLER_38_85
*1529 FILLER_38_97
*1530 FILLER_39_108
*1531 FILLER_39_113
*1532 FILLER_39_125
*1533 FILLER_39_130
*1534 FILLER_39_138
*1535 FILLER_39_147
*1536 FILLER_39_15
*1537 FILLER_39_155
*1538 FILLER_39_163
*1539 FILLER_39_167
*1540 FILLER_39_169
*1541 FILLER_39_177
*1542 FILLER_39_181
*1543 FILLER_39_189
*1544 FILLER_39_201
*1545 FILLER_39_213
*1546 FILLER_39_221
*1547 FILLER_39_225
*1548 FILLER_39_237
*1549 FILLER_39_249
*1550 FILLER_39_261
*1551 FILLER_39_273
*1552 FILLER_39_279
*1553 FILLER_39_281
*1554 FILLER_39_293
*1555 FILLER_39_3
*1556 FILLER_39_33
*1557 FILLER_39_39
*1558 FILLER_39_43
*1559 FILLER_39_55
*1560 FILLER_39_57
*1561 FILLER_39_69
*1562 FILLER_39_75
*1563 FILLER_39_84
*1564 FILLER_39_96
*1565 FILLER_3_105
*1566 FILLER_3_111
*1567 FILLER_3_113
*1568 FILLER_3_125
*1569 FILLER_3_137
*1570 FILLER_3_14
*1571 FILLER_3_149
*1572 FILLER_3_161
*1573 FILLER_3_167
*1574 FILLER_3_169
*1575 FILLER_3_181
*1576 FILLER_3_193
*1577 FILLER_3_205
*1578 FILLER_3_217
*1579 FILLER_3_223
*1580 FILLER_3_225
*1581 FILLER_3_237
*1582 FILLER_3_249
*1583 FILLER_3_261
*1584 FILLER_3_273
*1585 FILLER_3_279
*1586 FILLER_3_281
*1587 FILLER_3_293
*1588 FILLER_3_36
*1589 FILLER_3_48
*1590 FILLER_3_57
*1591 FILLER_3_6
*1592 FILLER_3_69
*1593 FILLER_3_81
*1594 FILLER_3_93
*1595 FILLER_40_102
*1596 FILLER_40_114
*1597 FILLER_40_118
*1598 FILLER_40_126
*1599 FILLER_40_136
*1600 FILLER_40_147
*1601 FILLER_40_15
*1602 FILLER_40_155
*1603 FILLER_40_162
*1604 FILLER_40_172
*1605 FILLER_40_182
*1606 FILLER_40_191
*1607 FILLER_40_195
*1608 FILLER_40_197
*1609 FILLER_40_209
*1610 FILLER_40_21
*1611 FILLER_40_221
*1612 FILLER_40_233
*1613 FILLER_40_245
*1614 FILLER_40_251
*1615 FILLER_40_253
*1616 FILLER_40_265
*1617 FILLER_40_27
*1618 FILLER_40_277
*1619 FILLER_40_289
*1620 FILLER_40_297
*1621 FILLER_40_3
*1622 FILLER_40_35
*1623 FILLER_40_47
*1624 FILLER_40_52
*1625 FILLER_40_59
*1626 FILLER_40_71
*1627 FILLER_40_80
*1628 FILLER_40_85
*1629 FILLER_41_101
*1630 FILLER_41_107
*1631 FILLER_41_111
*1632 FILLER_41_113
*1633 FILLER_41_119
*1634 FILLER_41_127
*1635 FILLER_41_138
*1636 FILLER_41_151
*1637 FILLER_41_155
*1638 FILLER_41_159
*1639 FILLER_41_167
*1640 FILLER_41_169
*1641 FILLER_41_183
*1642 FILLER_41_189
*1643 FILLER_41_195
*1644 FILLER_41_207
*1645 FILLER_41_219
*1646 FILLER_41_223
*1647 FILLER_41_225
*1648 FILLER_41_237
*1649 FILLER_41_249
*1650 FILLER_41_261
*1651 FILLER_41_27
*1652 FILLER_41_273
*1653 FILLER_41_279
*1654 FILLER_41_281
*1655 FILLER_41_293
*1656 FILLER_41_3
*1657 FILLER_41_35
*1658 FILLER_41_44
*1659 FILLER_41_57
*1660 FILLER_41_69
*1661 FILLER_41_81
*1662 FILLER_41_9
*1663 FILLER_41_93
*1664 FILLER_42_108
*1665 FILLER_42_117
*1666 FILLER_42_125
*1667 FILLER_42_136
*1668 FILLER_42_145
*1669 FILLER_42_15
*1670 FILLER_42_153
*1671 FILLER_42_161
*1672 FILLER_42_172
*1673 FILLER_42_181
*1674 FILLER_42_193
*1675 FILLER_42_203
*1676 FILLER_42_213
*1677 FILLER_42_225
*1678 FILLER_42_237
*1679 FILLER_42_249
*1680 FILLER_42_253
*1681 FILLER_42_265
*1682 FILLER_42_27
*1683 FILLER_42_277
*1684 FILLER_42_289
*1685 FILLER_42_29
*1686 FILLER_42_297
*1687 FILLER_42_3
*1688 FILLER_42_41
*1689 FILLER_42_53
*1690 FILLER_42_65
*1691 FILLER_42_77
*1692 FILLER_42_83
*1693 FILLER_42_85
*1694 FILLER_42_98
*1695 FILLER_43_108
*1696 FILLER_43_123
*1697 FILLER_43_133
*1698 FILLER_43_143
*1699 FILLER_43_15
*1700 FILLER_43_154
*1701 FILLER_43_164
*1702 FILLER_43_169
*1703 FILLER_43_180
*1704 FILLER_43_193
*1705 FILLER_43_210
*1706 FILLER_43_222
*1707 FILLER_43_225
*1708 FILLER_43_237
*1709 FILLER_43_249
*1710 FILLER_43_261
*1711 FILLER_43_27
*1712 FILLER_43_273
*1713 FILLER_43_279
*1714 FILLER_43_281
*1715 FILLER_43_293
*1716 FILLER_43_3
*1717 FILLER_43_42
*1718 FILLER_43_54
*1719 FILLER_43_62
*1720 FILLER_43_74
*1721 FILLER_43_80
*1722 FILLER_43_88
*1723 FILLER_43_97
*1724 FILLER_44_101
*1725 FILLER_44_109
*1726 FILLER_44_120
*1727 FILLER_44_132
*1728 FILLER_44_141
*1729 FILLER_44_147
*1730 FILLER_44_15
*1731 FILLER_44_163
*1732 FILLER_44_171
*1733 FILLER_44_182
*1734 FILLER_44_192
*1735 FILLER_44_200
*1736 FILLER_44_212
*1737 FILLER_44_224
*1738 FILLER_44_236
*1739 FILLER_44_248
*1740 FILLER_44_253
*1741 FILLER_44_265
*1742 FILLER_44_27
*1743 FILLER_44_277
*1744 FILLER_44_289
*1745 FILLER_44_29
*1746 FILLER_44_297
*1747 FILLER_44_3
*1748 FILLER_44_37
*1749 FILLER_44_42
*1750 FILLER_44_50
*1751 FILLER_44_58
*1752 FILLER_44_65
*1753 FILLER_44_76
*1754 FILLER_44_85
*1755 FILLER_45_101
*1756 FILLER_45_109
*1757 FILLER_45_113
*1758 FILLER_45_124
*1759 FILLER_45_132
*1760 FILLER_45_140