*SPEF "ieee 1481-1999"
*DESIGN "tt2_tholin_multiplier"
*DATE "11:11:11 Fri 11 11, 1111"
*VENDOR "OpenRCX"
*PROGRAM "Parallel Extraction"
*VERSION "1.0"
*DESIGN_FLOW "NAME_SCOPE LOCAL" "PIN_CAP NONE"
*DIVIDER /
*DELIMITER :
*BUS_DELIMITER []
*T_UNIT 1 NS
*C_UNIT 1 PF
*R_UNIT 1 OHM
*L_UNIT 1 HENRY

*NAME_MAP
*1 io_in[0]
*2 io_in[1]
*3 io_in[2]
*4 io_in[3]
*5 io_in[4]
*6 io_in[5]
*7 io_in[6]
*8 io_in[7]
*9 io_out[0]
*10 io_out[1]
*11 io_out[2]
*12 io_out[3]
*13 io_out[4]
*14 io_out[5]
*15 io_out[6]
*16 io_out[7]
*19 CIRCUIT_0\.R1
*20 CIRCUIT_0\.R2
*21 CIRCUIT_0\.R3
*22 CIRCUIT_0\.R4
*23 CIRCUIT_0\.R5
*24 CIRCUIT_0\.R6
*25 CIRCUIT_0\.R7
*26 _000_
*27 _001_
*28 _002_
*29 _003_
*30 _004_
*31 _005_
*32 _006_
*33 _007_
*34 _008_
*35 _009_
*36 _010_
*37 _011_
*38 _012_
*39 _013_
*40 _014_
*41 _015_
*42 _016_
*43 _017_
*44 _018_
*45 _019_
*46 _020_
*47 _021_
*48 _022_
*49 _023_
*50 _024_
*51 _025_
*52 _026_
*53 _027_
*54 _028_
*55 _029_
*56 _030_
*57 _031_
*58 _032_
*59 _033_
*60 _034_
*61 _035_
*62 _036_
*63 _037_
*64 _038_
*65 _039_
*66 _040_
*67 _041_
*68 _042_
*69 _043_
*70 _044_
*71 _045_
*72 _046_
*73 _047_
*74 _049_
*75 _050_
*76 _051_
*77 _052_
*78 _053_
*79 _054_
*80 _055_
*81 _056_
*82 clknet_0__001_
*83 clknet_0__007_
*84 clknet_0__010_
*85 clknet_0__011_
*86 clknet_0__012_
*87 clknet_0__013_
*88 clknet_0__014_
*89 clknet_0__019_
*90 clknet_0__020_
*91 clknet_0__024_
*92 clknet_0__025_
*93 clknet_0__027_
*94 clknet_0__028_
*95 clknet_0__029_
*96 clknet_0__031_
*97 clknet_0__032_
*98 clknet_0__033_
*99 clknet_0__035_
*100 clknet_0__036_
*101 clknet_0__037_
*102 clknet_0__038_
*103 clknet_0__040_
*104 clknet_0__041_
*105 clknet_0__045_
*106 clknet_0__046_
*107 clknet_0__047_
*108 clknet_0__050_
*109 clknet_0__051_
*110 clknet_0__053_
*111 clknet_0__054_
*112 clknet_0__055_
*113 clknet_0_io_in[0]
*114 clknet_1_0__leaf__001_
*115 clknet_1_0__leaf__007_
*116 clknet_1_0__leaf__010_
*117 clknet_1_0__leaf__011_
*118 clknet_1_0__leaf__012_
*119 clknet_1_0__leaf__013_
*120 clknet_1_0__leaf__014_
*121 clknet_1_0__leaf__019_
*122 clknet_1_0__leaf__020_
*123 clknet_1_0__leaf__024_
*124 clknet_1_0__leaf__025_
*125 clknet_1_0__leaf__027_
*126 clknet_1_0__leaf__028_
*127 clknet_1_0__leaf__029_
*128 clknet_1_0__leaf__031_
*129 clknet_1_0__leaf__032_
*130 clknet_1_0__leaf__033_
*131 clknet_1_0__leaf__035_
*132 clknet_1_0__leaf__036_
*133 clknet_1_0__leaf__037_
*134 clknet_1_0__leaf__038_
*135 clknet_1_0__leaf__040_
*136 clknet_1_0__leaf__041_
*137 clknet_1_0__leaf__045_
*138 clknet_1_0__leaf__046_
*139 clknet_1_0__leaf__047_
*140 clknet_1_0__leaf__050_
*141 clknet_1_0__leaf__051_
*142 clknet_1_0__leaf__053_
*143 clknet_1_0__leaf__054_
*144 clknet_1_0__leaf__055_
*145 clknet_1_0__leaf_io_in[0]
*146 clknet_1_1__leaf__001_
*147 clknet_1_1__leaf__007_
*148 clknet_1_1__leaf__010_
*149 clknet_1_1__leaf__011_
*150 clknet_1_1__leaf__012_
*151 clknet_1_1__leaf__013_
*152 clknet_1_1__leaf__014_
*153 clknet_1_1__leaf__019_
*154 clknet_1_1__leaf__020_
*155 clknet_1_1__leaf__024_
*156 clknet_1_1__leaf__025_
*157 clknet_1_1__leaf__027_
*158 clknet_1_1__leaf__028_
*159 clknet_1_1__leaf__029_
*160 clknet_1_1__leaf__031_
*161 clknet_1_1__leaf__032_
*162 clknet_1_1__leaf__033_
*163 clknet_1_1__leaf__035_
*164 clknet_1_1__leaf__036_
*165 clknet_1_1__leaf__037_
*166 clknet_1_1__leaf__038_
*167 clknet_1_1__leaf__040_
*168 clknet_1_1__leaf__041_
*169 clknet_1_1__leaf__045_
*170 clknet_1_1__leaf__046_
*171 clknet_1_1__leaf__047_
*172 clknet_1_1__leaf__050_
*173 clknet_1_1__leaf__051_
*174 clknet_1_1__leaf__053_
*175 clknet_1_1__leaf__054_
*176 clknet_1_1__leaf__055_
*177 clknet_1_1__leaf_io_in[0]
*178 net1
*179 net2
*180 net3
*181 net4
*182 net5
*183 net6
*184 net7
*185 net8
*186 net9
*187 FILLER_0_109
*188 FILLER_0_113
*189 FILLER_0_125
*190 FILLER_0_137
*191 FILLER_0_141
*192 FILLER_0_15
*193 FILLER_0_153
*194 FILLER_0_165
*195 FILLER_0_169
*196 FILLER_0_181
*197 FILLER_0_193
*198 FILLER_0_197
*199 FILLER_0_209
*200 FILLER_0_221
*201 FILLER_0_225
*202 FILLER_0_237
*203 FILLER_0_249
*204 FILLER_0_253
*205 FILLER_0_265
*206 FILLER_0_27
*207 FILLER_0_277
*208 FILLER_0_281
*209 FILLER_0_29
*210 FILLER_0_293
*211 FILLER_0_3
*212 FILLER_0_41
*213 FILLER_0_53
*214 FILLER_0_57
*215 FILLER_0_69
*216 FILLER_0_81
*217 FILLER_0_85
*218 FILLER_0_97
*219 FILLER_10_109
*220 FILLER_10_121
*221 FILLER_10_133
*222 FILLER_10_139
*223 FILLER_10_141
*224 FILLER_10_15
*225 FILLER_10_153
*226 FILLER_10_165
*227 FILLER_10_177
*228 FILLER_10_189
*229 FILLER_10_195
*230 FILLER_10_197
*231 FILLER_10_209
*232 FILLER_10_221
*233 FILLER_10_233
*234 FILLER_10_245
*235 FILLER_10_251
*236 FILLER_10_253
*237 FILLER_10_265
*238 FILLER_10_27
*239 FILLER_10_277
*240 FILLER_10_289
*241 FILLER_10_29
*242 FILLER_10_297
*243 FILLER_10_3
*244 FILLER_10_41
*245 FILLER_10_53
*246 FILLER_10_65
*247 FILLER_10_77
*248 FILLER_10_83
*249 FILLER_10_85
*250 FILLER_10_97
*251 FILLER_11_105
*252 FILLER_11_111
*253 FILLER_11_113
*254 FILLER_11_125
*255 FILLER_11_137
*256 FILLER_11_149
*257 FILLER_11_15
*258 FILLER_11_161
*259 FILLER_11_167
*260 FILLER_11_169
*261 FILLER_11_181
*262 FILLER_11_193
*263 FILLER_11_205
*264 FILLER_11_217
*265 FILLER_11_223
*266 FILLER_11_225
*267 FILLER_11_237
*268 FILLER_11_249
*269 FILLER_11_261
*270 FILLER_11_27
*271 FILLER_11_273
*272 FILLER_11_279
*273 FILLER_11_281
*274 FILLER_11_293
*275 FILLER_11_3
*276 FILLER_11_39
*277 FILLER_11_51
*278 FILLER_11_55
*279 FILLER_11_57
*280 FILLER_11_69
*281 FILLER_11_81
*282 FILLER_11_93
*283 FILLER_12_109
*284 FILLER_12_121
*285 FILLER_12_133
*286 FILLER_12_139
*287 FILLER_12_141
*288 FILLER_12_153
*289 FILLER_12_165
*290 FILLER_12_177
*291 FILLER_12_18
*292 FILLER_12_189
*293 FILLER_12_195
*294 FILLER_12_197
*295 FILLER_12_209
*296 FILLER_12_221
*297 FILLER_12_233
*298 FILLER_12_245
*299 FILLER_12_251
*300 FILLER_12_253
*301 FILLER_12_26
*302 FILLER_12_265
*303 FILLER_12_277
*304 FILLER_12_289
*305 FILLER_12_29
*306 FILLER_12_297
*307 FILLER_12_41
*308 FILLER_12_53
*309 FILLER_12_6
*310 FILLER_12_65
*311 FILLER_12_77
*312 FILLER_12_83
*313 FILLER_12_85
*314 FILLER_12_97
*315 FILLER_13_105
*316 FILLER_13_111
*317 FILLER_13_113
*318 FILLER_13_125
*319 FILLER_13_137
*320 FILLER_13_149
*321 FILLER_13_15
*322 FILLER_13_161
*323 FILLER_13_167
*324 FILLER_13_169
*325 FILLER_13_181
*326 FILLER_13_193
*327 FILLER_13_205
*328 FILLER_13_217
*329 FILLER_13_223
*330 FILLER_13_225
*331 FILLER_13_237
*332 FILLER_13_249
*333 FILLER_13_261
*334 FILLER_13_27
*335 FILLER_13_273
*336 FILLER_13_279
*337 FILLER_13_281
*338 FILLER_13_293
*339 FILLER_13_3
*340 FILLER_13_39
*341 FILLER_13_51
*342 FILLER_13_55
*343 FILLER_13_57
*344 FILLER_13_69
*345 FILLER_13_81
*346 FILLER_13_93
*347 FILLER_14_109
*348 FILLER_14_121
*349 FILLER_14_133
*350 FILLER_14_139
*351 FILLER_14_141
*352 FILLER_14_15
*353 FILLER_14_153
*354 FILLER_14_165
*355 FILLER_14_177
*356 FILLER_14_189
*357 FILLER_14_195
*358 FILLER_14_197
*359 FILLER_14_209
*360 FILLER_14_221
*361 FILLER_14_233
*362 FILLER_14_245
*363 FILLER_14_251
*364 FILLER_14_253
*365 FILLER_14_265
*366 FILLER_14_27
*367 FILLER_14_277
*368 FILLER_14_289
*369 FILLER_14_29
*370 FILLER_14_297
*371 FILLER_14_3
*372 FILLER_14_41
*373 FILLER_14_53
*374 FILLER_14_65
*375 FILLER_14_77
*376 FILLER_14_83
*377 FILLER_14_85
*378 FILLER_14_97
*379 FILLER_15_105
*380 FILLER_15_111
*381 FILLER_15_113
*382 FILLER_15_125
*383 FILLER_15_137
*384 FILLER_15_149
*385 FILLER_15_15
*386 FILLER_15_161
*387 FILLER_15_167
*388 FILLER_15_169
*389 FILLER_15_181
*390 FILLER_15_193
*391 FILLER_15_205
*392 FILLER_15_217
*393 FILLER_15_223
*394 FILLER_15_225
*395 FILLER_15_237
*396 FILLER_15_249
*397 FILLER_15_261
*398 FILLER_15_27
*399 FILLER_15_273
*400 FILLER_15_279
*401 FILLER_15_281
*402 FILLER_15_293
*403 FILLER_15_3
*404 FILLER_15_39
*405 FILLER_15_51
*406 FILLER_15_55
*407 FILLER_15_57
*408 FILLER_15_69
*409 FILLER_15_81
*410 FILLER_15_93
*411 FILLER_16_109
*412 FILLER_16_11
*413 FILLER_16_121
*414 FILLER_16_133
*415 FILLER_16_139
*416 FILLER_16_141
*417 FILLER_16_153
*418 FILLER_16_165
*419 FILLER_16_177
*420 FILLER_16_189
*421 FILLER_16_195
*422 FILLER_16_197
*423 FILLER_16_209
*424 FILLER_16_221
*425 FILLER_16_23
*426 FILLER_16_233
*427 FILLER_16_245
*428 FILLER_16_251
*429 FILLER_16_253
*430 FILLER_16_265
*431 FILLER_16_27
*432 FILLER_16_277
*433 FILLER_16_289
*434 FILLER_16_29
*435 FILLER_16_297
*436 FILLER_16_3
*437 FILLER_16_41
*438 FILLER_16_53
*439 FILLER_16_65
*440 FILLER_16_77
*441 FILLER_16_83
*442 FILLER_16_85
*443 FILLER_16_97
*444 FILLER_17_105
*445 FILLER_17_111
*446 FILLER_17_113
*447 FILLER_17_125
*448 FILLER_17_137
*449 FILLER_17_149
*450 FILLER_17_15
*451 FILLER_17_161
*452 FILLER_17_167
*453 FILLER_17_169
*454 FILLER_17_181
*455 FILLER_17_193
*456 FILLER_17_205
*457 FILLER_17_217
*458 FILLER_17_223
*459 FILLER_17_225
*460 FILLER_17_237
*461 FILLER_17_249
*462 FILLER_17_261
*463 FILLER_17_27
*464 FILLER_17_273
*465 FILLER_17_279
*466 FILLER_17_281
*467 FILLER_17_293
*468 FILLER_17_3
*469 FILLER_17_39
*470 FILLER_17_51
*471 FILLER_17_55
*472 FILLER_17_57
*473 FILLER_17_69
*474 FILLER_17_81
*475 FILLER_17_93
*476 FILLER_18_109
*477 FILLER_18_12
*478 FILLER_18_121
*479 FILLER_18_133
*480 FILLER_18_139
*481 FILLER_18_141
*482 FILLER_18_153
*483 FILLER_18_165
*484 FILLER_18_177
*485 FILLER_18_189
*486 FILLER_18_19
*487 FILLER_18_195
*488 FILLER_18_197
*489 FILLER_18_209
*490 FILLER_18_221
*491 FILLER_18_233
*492 FILLER_18_245
*493 FILLER_18_251
*494 FILLER_18_253
*495 FILLER_18_265
*496 FILLER_18_27
*497 FILLER_18_277
*498 FILLER_18_289
*499 FILLER_18_29
*500 FILLER_18_297
*501 FILLER_18_3
*502 FILLER_18_41
*503 FILLER_18_53
*504 FILLER_18_65
*505 FILLER_18_77
*506 FILLER_18_83
*507 FILLER_18_85
*508 FILLER_18_97
*509 FILLER_19_105
*510 FILLER_19_111
*511 FILLER_19_113
*512 FILLER_19_125
*513 FILLER_19_137
*514 FILLER_19_14
*515 FILLER_19_149
*516 FILLER_19_161
*517 FILLER_19_167
*518 FILLER_19_169
*519 FILLER_19_181
*520 FILLER_19_193
*521 FILLER_19_205
*522 FILLER_19_217
*523 FILLER_19_22
*524 FILLER_19_223
*525 FILLER_19_225
*526 FILLER_19_237
*527 FILLER_19_249
*528 FILLER_19_261
*529 FILLER_19_273
*530 FILLER_19_279
*531 FILLER_19_281
*532 FILLER_19_293
*533 FILLER_19_3
*534 FILLER_19_34
*535 FILLER_19_46
*536 FILLER_19_54
*537 FILLER_19_57
*538 FILLER_19_69
*539 FILLER_19_81
*540 FILLER_19_93
*541 FILLER_1_105
*542 FILLER_1_111
*543 FILLER_1_113
*544 FILLER_1_125
*545 FILLER_1_137
*546 FILLER_1_149
*547 FILLER_1_15
*548 FILLER_1_161
*549 FILLER_1_167
*550 FILLER_1_169
*551 FILLER_1_181
*552 FILLER_1_193
*553 FILLER_1_205
*554 FILLER_1_217
*555 FILLER_1_223
*556 FILLER_1_225
*557 FILLER_1_237
*558 FILLER_1_249
*559 FILLER_1_261
*560 FILLER_1_27
*561 FILLER_1_273
*562 FILLER_1_279
*563 FILLER_1_281
*564 FILLER_1_293
*565 FILLER_1_3
*566 FILLER_1_39
*567 FILLER_1_51
*568 FILLER_1_55
*569 FILLER_1_57
*570 FILLER_1_69
*571 FILLER_1_81
*572 FILLER_1_93
*573 FILLER_20_109
*574 FILLER_20_121
*575 FILLER_20_133
*576 FILLER_20_139
*577 FILLER_20_141
*578 FILLER_20_153
*579 FILLER_20_165
*580 FILLER_20_177
*581 FILLER_20_189
*582 FILLER_20_195
*583 FILLER_20_197
*584 FILLER_20_209
*585 FILLER_20_221
*586 FILLER_20_233
*587 FILLER_20_24
*588 FILLER_20_245
*589 FILLER_20_251
*590 FILLER_20_253
*591 FILLER_20_265
*592 FILLER_20_277
*593 FILLER_20_289
*594 FILLER_20_29
*595 FILLER_20_297
*596 FILLER_20_3
*597 FILLER_20_41
*598 FILLER_20_53
*599 FILLER_20_65
*600 FILLER_20_77
*601 FILLER_20_8
*602 FILLER_20_83
*603 FILLER_20_85
*604 FILLER_20_97
*605 FILLER_21_105
*606 FILLER_21_11
*607 FILLER_21_111
*608 FILLER_21_113
*609 FILLER_21_125
*610 FILLER_21_137
*611 FILLER_21_149
*612 FILLER_21_161
*613 FILLER_21_167
*614 FILLER_21_169
*615 FILLER_21_18
*616 FILLER_21_181
*617 FILLER_21_193
*618 FILLER_21_205
*619 FILLER_21_217
*620 FILLER_21_223
*621 FILLER_21_225
*622 FILLER_21_237
*623 FILLER_21_249
*624 FILLER_21_25
*625 FILLER_21_261
*626 FILLER_21_273
*627 FILLER_21_279
*628 FILLER_21_281
*629 FILLER_21_293
*630 FILLER_21_3
*631 FILLER_21_37
*632 FILLER_21_49
*633 FILLER_21_55
*634 FILLER_21_57
*635 FILLER_21_69
*636 FILLER_21_81
*637 FILLER_21_93
*638 FILLER_22_109
*639 FILLER_22_11
*640 FILLER_22_121
*641 FILLER_22_133
*642 FILLER_22_139
*643 FILLER_22_141
*644 FILLER_22_153
*645 FILLER_22_165
*646 FILLER_22_177
*647 FILLER_22_18
*648 FILLER_22_189
*649 FILLER_22_195
*650 FILLER_22_197
*651 FILLER_22_209
*652 FILLER_22_221
*653 FILLER_22_233
*654 FILLER_22_245
*655 FILLER_22_251
*656 FILLER_22_253
*657 FILLER_22_26
*658 FILLER_22_265
*659 FILLER_22_277
*660 FILLER_22_289
*661 FILLER_22_29
*662 FILLER_22_297
*663 FILLER_22_3
*664 FILLER_22_41
*665 FILLER_22_53
*666 FILLER_22_65
*667 FILLER_22_77
*668 FILLER_22_83
*669 FILLER_22_85
*670 FILLER_22_97
*671 FILLER_23_10
*672 FILLER_23_105
*673 FILLER_23_111
*674 FILLER_23_113
*675 FILLER_23_125
*676 FILLER_23_137
*677 FILLER_23_149
*678 FILLER_23_161
*679 FILLER_23_167
*680 FILLER_23_169
*681 FILLER_23_181
*682 FILLER_23_193
*683 FILLER_23_205
*684 FILLER_23_217
*685 FILLER_23_223
*686 FILLER_23_225
*687 FILLER_23_237
*688 FILLER_23_24
*689 FILLER_23_249
*690 FILLER_23_261
*691 FILLER_23_273
*692 FILLER_23_279
*693 FILLER_23_281
*694 FILLER_23_293
*695 FILLER_23_3
*696 FILLER_23_36
*697 FILLER_23_48
*698 FILLER_23_57
*699 FILLER_23_69
*700 FILLER_23_81
*701 FILLER_23_93
*702 FILLER_24_109
*703 FILLER_24_11
*704 FILLER_24_121
*705 FILLER_24_133
*706 FILLER_24_139
*707 FILLER_24_141
*708 FILLER_24_153
*709 FILLER_24_165
*710 FILLER_24_177
*711 FILLER_24_18
*712 FILLER_24_189
*713 FILLER_24_195
*714 FILLER_24_197
*715 FILLER_24_209
*716 FILLER_24_221
*717 FILLER_24_233
*718 FILLER_24_245
*719 FILLER_24_251
*720 FILLER_24_253
*721 FILLER_24_26
*722 FILLER_24_265
*723 FILLER_24_277
*724 FILLER_24_289
*725 FILLER_24_29
*726 FILLER_24_297
*727 FILLER_24_3
*728 FILLER_24_41
*729 FILLER_24_53
*730 FILLER_24_65
*731 FILLER_24_77
*732 FILLER_24_83
*733 FILLER_24_85
*734 FILLER_24_97
*735 FILLER_25_105
*736 FILLER_25_111
*737 FILLER_25_113
*738 FILLER_25_12
*739 FILLER_25_125
*740 FILLER_25_137
*741 FILLER_25_149
*742 FILLER_25_161
*743 FILLER_25_167
*744 FILLER_25_169
*745 FILLER_25_181
*746 FILLER_25_19
*747 FILLER_25_193
*748 FILLER_25_205
*749 FILLER_25_217
*750 FILLER_25_223
*751 FILLER_25_225
*752 FILLER_25_237
*753 FILLER_25_249
*754 FILLER_25_261
*755 FILLER_25_273
*756 FILLER_25_279
*757 FILLER_25_281
*758 FILLER_25_293
*759 FILLER_25_3
*760 FILLER_25_31
*761 FILLER_25_43
*762 FILLER_25_55
*763 FILLER_25_57
*764 FILLER_25_69
*765 FILLER_25_81
*766 FILLER_25_93
*767 FILLER_26_109
*768 FILLER_26_121
*769 FILLER_26_133
*770 FILLER_26_139
*771 FILLER_26_141
*772 FILLER_26_153
*773 FILLER_26_16
*774 FILLER_26_165
*775 FILLER_26_177
*776 FILLER_26_189
*777 FILLER_26_195
*778 FILLER_26_197
*779 FILLER_26_209
*780 FILLER_26_221
*781 FILLER_26_233
*782 FILLER_26_24
*783 FILLER_26_245
*784 FILLER_26_251
*785 FILLER_26_253
*786 FILLER_26_265
*787 FILLER_26_277
*788 FILLER_26_289
*789 FILLER_26_29
*790 FILLER_26_297
*791 FILLER_26_33
*792 FILLER_26_45
*793 FILLER_26_57
*794 FILLER_26_69
*795 FILLER_26_81
*796 FILLER_26_85
*797 FILLER_26_97
*798 FILLER_27_105
*799 FILLER_27_111
*800 FILLER_27_113
*801 FILLER_27_125
*802 FILLER_27_137
*803 FILLER_27_149
*804 FILLER_27_161
*805 FILLER_27_167
*806 FILLER_27_169
*807 FILLER_27_181
*808 FILLER_27_193
*809 FILLER_27_205
*810 FILLER_27_217
*811 FILLER_27_223
*812 FILLER_27_225
*813 FILLER_27_237
*814 FILLER_27_249
*815 FILLER_27_261
*816 FILLER_27_27
*817 FILLER_27_273
*818 FILLER_27_279
*819 FILLER_27_281
*820 FILLER_27_293
*821 FILLER_27_3
*822 FILLER_27_39
*823 FILLER_27_51
*824 FILLER_27_55
*825 FILLER_27_57
*826 FILLER_27_69
*827 FILLER_27_81
*828 FILLER_27_93
*829 FILLER_28_109
*830 FILLER_28_121
*831 FILLER_28_133
*832 FILLER_28_139
*833 FILLER_28_141
*834 FILLER_28_153
*835 FILLER_28_165
*836 FILLER_28_177
*837 FILLER_28_189
*838 FILLER_28_195
*839 FILLER_28_197
*840 FILLER_28_209
*841 FILLER_28_221
*842 FILLER_28_233
*843 FILLER_28_24
*844 FILLER_28_245
*845 FILLER_28_251
*846 FILLER_28_253
*847 FILLER_28_265
*848 FILLER_28_277
*849 FILLER_28_289
*850 FILLER_28_297
*851 FILLER_28_3
*852 FILLER_28_34
*853 FILLER_28_41
*854 FILLER_28_53
*855 FILLER_28_65
*856 FILLER_28_77
*857 FILLER_28_83
*858 FILLER_28_85
*859 FILLER_28_97
*860 FILLER_29_105
*861 FILLER_29_111
*862 FILLER_29_113
*863 FILLER_29_125
*864 FILLER_29_137
*865 FILLER_29_149
*866 FILLER_29_15
*867 FILLER_29_161
*868 FILLER_29_167
*869 FILLER_29_169
*870 FILLER_29_181
*871 FILLER_29_193
*872 FILLER_29_205
*873 FILLER_29_217
*874 FILLER_29_223
*875 FILLER_29_225
*876 FILLER_29_237
*877 FILLER_29_249
*878 FILLER_29_261
*879 FILLER_29_273
*880 FILLER_29_279
*881 FILLER_29_281
*882 FILLER_29_293
*883 FILLER_29_3
*884 FILLER_29_36
*885 FILLER_29_44
*886 FILLER_29_51
*887 FILLER_29_55
*888 FILLER_29_57
*889 FILLER_29_69
*890 FILLER_29_81
*891 FILLER_29_9
*892 FILLER_29_93
*893 FILLER_2_109
*894 FILLER_2_121
*895 FILLER_2_133
*896 FILLER_2_139
*897 FILLER_2_141
*898 FILLER_2_15
*899 FILLER_2_153
*900 FILLER_2_165
*901 FILLER_2_177
*902 FILLER_2_189
*903 FILLER_2_195
*904 FILLER_2_197
*905 FILLER_2_209
*906 FILLER_2_221
*907 FILLER_2_233
*908 FILLER_2_245
*909 FILLER_2_251
*910 FILLER_2_253
*911 FILLER_2_265
*912 FILLER_2_27
*913 FILLER_2_277
*914 FILLER_2_289
*915 FILLER_2_29
*916 FILLER_2_297
*917 FILLER_2_3
*918 FILLER_2_41
*919 FILLER_2_53
*920 FILLER_2_65
*921 FILLER_2_77
*922 FILLER_2_83
*923 FILLER_2_85
*924 FILLER_2_97
*925 FILLER_30_109
*926 FILLER_30_121
*927 FILLER_30_133
*928 FILLER_30_139
*929 FILLER_30_141
*930 FILLER_30_153
*931 FILLER_30_165
*932 FILLER_30_177
*933 FILLER_30_189
*934 FILLER_30_195
*935 FILLER_30_197
*936 FILLER_30_209
*937 FILLER_30_221
*938 FILLER_30_233
*939 FILLER_30_24
*940 FILLER_30_245
*941 FILLER_30_251
*942 FILLER_30_253
*943 FILLER_30_265
*944 FILLER_30_277
*945 FILLER_30_289
*946 FILLER_30_29
*947 FILLER_30_297
*948 FILLER_30_3
*949 FILLER_30_53
*950 FILLER_30_65
*951 FILLER_30_77
*952 FILLER_30_83
*953 FILLER_30_85
*954 FILLER_30_97
*955 FILLER_31_105
*956 FILLER_31_111
*957 FILLER_31_113
*958 FILLER_31_12
*959 FILLER_31_125
*960 FILLER_31_137
*961 FILLER_31_149
*962 FILLER_31_161
*963 FILLER_31_167
*964 FILLER_31_169
*965 FILLER_31_181
*966 FILLER_31_193
*967 FILLER_31_205
*968 FILLER_31_217
*969 FILLER_31_223
*970 FILLER_31_225
*971 FILLER_31_237
*972 FILLER_31_249
*973 FILLER_31_261
*974 FILLER_31_273
*975 FILLER_31_279
*976 FILLER_31_281
*977 FILLER_31_293
*978 FILLER_31_3
*979 FILLER_31_36
*980 FILLER_31_45
*981 FILLER_31_52
*982 FILLER_31_57
*983 FILLER_31_69
*984 FILLER_31_81
*985 FILLER_31_93
*986 FILLER_32_109
*987 FILLER_32_121
*988 FILLER_32_133
*989 FILLER_32_139
*990 FILLER_32_141
*991 FILLER_32_153
*992 FILLER_32_165
*993 FILLER_32_177
*994 FILLER_32_189
*995 FILLER_32_195
*996 FILLER_32_197
*997 FILLER_32_209
*998 FILLER_32_221
*999 FILLER_32_233
*1000 FILLER_32_24
*1001 FILLER_32_245
*1002 FILLER_32_251
*1003 FILLER_32_253
*1004 FILLER_32_265
*1005 FILLER_32_277
*1006 FILLER_32_289
*1007 FILLER_32_29
*1008 FILLER_32_297
*1009 FILLER_32_3
*1010 FILLER_32_53
*1011 FILLER_32_61
*1012 FILLER_32_73
*1013 FILLER_32_81
*1014 FILLER_32_85
*1015 FILLER_32_97
*1016 FILLER_33_105
*1017 FILLER_33_11
*1018 FILLER_33_111
*1019 FILLER_33_113
*1020 FILLER_33_125
*1021 FILLER_33_137
*1022 FILLER_33_149
*1023 FILLER_33_15
*1024 FILLER_33_161
*1025 FILLER_33_167
*1026 FILLER_33_169
*1027 FILLER_33_181
*1028 FILLER_33_193
*1029 FILLER_33_205
*1030 FILLER_33_217
*1031 FILLER_33_223
*1032 FILLER_33_225
*1033 FILLER_33_237
*1034 FILLER_33_249
*1035 FILLER_33_261
*1036 FILLER_33_273
*1037 FILLER_33_279
*1038 FILLER_33_281
*1039 FILLER_33_293
*1040 FILLER_33_36
*1041 FILLER_33_45
*1042 FILLER_33_53
*1043 FILLER_33_57
*1044 FILLER_33_81
*1045 FILLER_33_93
*1046 FILLER_34_109
*1047 FILLER_34_121
*1048 FILLER_34_133
*1049 FILLER_34_139
*1050 FILLER_34_141
*1051 FILLER_34_153
*1052 FILLER_34_165
*1053 FILLER_34_177
*1054 FILLER_34_189
*1055 FILLER_34_195
*1056 FILLER_34_197
*1057 FILLER_34_209
*1058 FILLER_34_221
*1059 FILLER_34_233
*1060 FILLER_34_24
*1061 FILLER_34_245
*1062 FILLER_34_251
*1063 FILLER_34_253
*1064 FILLER_34_265
*1065 FILLER_34_277
*1066 FILLER_34_289
*1067 FILLER_34_297
*1068 FILLER_34_3
*1069 FILLER_34_35
*1070 FILLER_34_43
*1071 FILLER_34_65
*1072 FILLER_34_74
*1073 FILLER_34_82
*1074 FILLER_34_85
*1075 FILLER_34_97
*1076 FILLER_35_105
*1077 FILLER_35_111
*1078 FILLER_35_113
*1079 FILLER_35_12
*1080 FILLER_35_125
*1081 FILLER_35_137
*1082 FILLER_35_149
*1083 FILLER_35_161
*1084 FILLER_35_167
*1085 FILLER_35_169
*1086 FILLER_35_181
*1087 FILLER_35_193
*1088 FILLER_35_205
*1089 FILLER_35_217
*1090 FILLER_35_223
*1091 FILLER_35_225
*1092 FILLER_35_237
*1093 FILLER_35_249
*1094 FILLER_35_261
*1095 FILLER_35_273
*1096 FILLER_35_279
*1097 FILLER_35_281
*1098 FILLER_35_293
*1099 FILLER_35_3
*1100 FILLER_35_36
*1101 FILLER_35_44
*1102 FILLER_35_52
*1103 FILLER_35_57
*1104 FILLER_35_81
*1105 FILLER_35_93
*1106 FILLER_36_102
*1107 FILLER_36_114
*1108 FILLER_36_126
*1109 FILLER_36_138
*1110 FILLER_36_141
*1111 FILLER_36_153
*1112 FILLER_36_165
*1113 FILLER_36_177
*1114 FILLER_36_189
*1115 FILLER_36_195
*1116 FILLER_36_197
*1117 FILLER_36_209
*1118 FILLER_36_221
*1119 FILLER_36_233
*1120 FILLER_36_24
*1121 FILLER_36_245
*1122 FILLER_36_251
*1123 FILLER_36_253
*1124 FILLER_36_265
*1125 FILLER_36_277
*1126 FILLER_36_289
*1127 FILLER_36_297
*1128 FILLER_36_3
*1129 FILLER_36_36
*1130 FILLER_36_44
*1131 FILLER_36_65
*1132 FILLER_36_74
*1133 FILLER_36_82
*1134 FILLER_36_90
*1135 FILLER_37_105
*1136 FILLER_37_11
*1137 FILLER_37_111
*1138 FILLER_37_113
*1139 FILLER_37_125
*1140 FILLER_37_137
*1141 FILLER_37_149
*1142 FILLER_37_15
*1143 FILLER_37_161
*1144 FILLER_37_167
*1145 FILLER_37_169
*1146 FILLER_37_181
*1147 FILLER_37_193
*1148 FILLER_37_205
*1149 FILLER_37_217
*1150 FILLER_37_223
*1151 FILLER_37_225
*1152 FILLER_37_237
*1153 FILLER_37_249
*1154 FILLER_37_261
*1155 FILLER_37_273
*1156 FILLER_37_279
*1157 FILLER_37_281
*1158 FILLER_37_293
*1159 FILLER_37_36
*1160 FILLER_37_47
*1161 FILLER_37_55
*1162 FILLER_37_57
*1163 FILLER_37_81
*1164 FILLER_38_109
*1165 FILLER_38_121
*1166 FILLER_38_133
*1167 FILLER_38_139
*1168 FILLER_38_141
*1169 FILLER_38_153
*1170 FILLER_38_165
*1171 FILLER_38_177
*1172 FILLER_38_189
*1173 FILLER_38_195
*1174 FILLER_38_197
*1175 FILLER_38_209
*1176 FILLER_38_221
*1177 FILLER_38_233
*1178 FILLER_38_24
*1179 FILLER_38_245
*1180 FILLER_38_251
*1181 FILLER_38_253
*1182 FILLER_38_265
*1183 FILLER_38_277
*1184 FILLER_38_289
*1185 FILLER_38_29
*1186 FILLER_38_297
*1187 FILLER_38_3
*1188 FILLER_38_53
*1189 FILLER_38_77
*1190 FILLER_38_83
*1191 FILLER_38_85
*1192 FILLER_39_105
*1193 FILLER_39_111
*1194 FILLER_39_117
*1195 FILLER_39_12
*1196 FILLER_39_129
*1197 FILLER_39_141
*1198 FILLER_39_153
*1199 FILLER_39_165
*1200 FILLER_39_169
*1201 FILLER_39_181
*1202 FILLER_39_193
*1203 FILLER_39_205
*1204 FILLER_39_217
*1205 FILLER_39_223
*1206 FILLER_39_225
*1207 FILLER_39_237
*1208 FILLER_39_249
*1209 FILLER_39_261
*1210 FILLER_39_273
*1211 FILLER_39_279
*1212 FILLER_39_281
*1213 FILLER_39_293
*1214 FILLER_39_3
*1215 FILLER_39_36
*1216 FILLER_39_48
*1217 FILLER_39_57
*1218 FILLER_39_81
*1219 FILLER_3_105
*1220 FILLER_3_111
*1221 FILLER_3_113
*1222 FILLER_3_125
*1223 FILLER_3_137
*1224 FILLER_3_149
*1225 FILLER_3_15
*1226 FILLER_3_161
*1227 FILLER_3_167
*1228 FILLER_3_169
*1229 FILLER_3_181
*1230 FILLER_3_193
*1231 FILLER_3_205
*1232 FILLER_3_217
*1233 FILLER_3_223
*1234 FILLER_3_225
*1235 FILLER_3_237
*1236 FILLER_3_249
*1237 FILLER_3_261
*1238 FILLER_3_27
*1239 FILLER_3_273
*1240 FILLER_3_279
*1241 FILLER_3_281
*1242 FILLER_3_293
*1243 FILLER_3_3
*1244 FILLER_3_39
*1245 FILLER_3_51
*1246 FILLER_3_55
*1247 FILLER_3_57
*1248 FILLER_3_69
*1249 FILLER_3_81
*1250 FILLER_3_93
*1251 FILLER_40_109
*1252 FILLER_40_133
*1253 FILLER_40_139
*1254 FILLER_40_141
*1255 FILLER_40_153
*1256 FILLER_40_165
*1257 FILLER_40_177
*1258 FILLER_40_189
*1259 FILLER_40_195
*1260 FILLER_40_197
*1261 FILLER_40_209
*1262 FILLER_40_221
*1263 FILLER_40_233
*1264 FILLER_40_24
*1265 FILLER_40_245
*1266 FILLER_40_251
*1267 FILLER_40_253
*1268 FILLER_40_265
*1269 FILLER_40_277
*1270 FILLER_40_289
*1271 FILLER_40_297
*1272 FILLER_40_3
*1273 FILLER_40_39
*1274 FILLER_40_65
*1275 FILLER_40_76
*1276 FILLER_40_85
*1277 FILLER_41_105
*1278 FILLER_41_111
*1279 FILLER_41_113
*1280 FILLER_41_12
*1281 FILLER_41_137
*1282 FILLER_41_149
*1283 FILLER_41_161
*1284 FILLER_41_167
*1285 FILLER_41_169
*1286 FILLER_41_181
*1287 FILLER_41_193
*1288 FILLER_41_205
*1289 FILLER_41_217
*1290 FILLER_41_223
*1291 FILLER_41_225
*1292 FILLER_41_237
*1293 FILLER_41_249
*1294 FILLER_41_261
*1295 FILLER_41_273
*1296 FILLER_41_279
*1297 FILLER_41_281
*1298 FILLER_41_293
*1299 FILLER_41_3
*1300 FILLER_41_36
*1301 FILLER_41_50
*1302 FILLER_41_57
*1303 FILLER_41_81
*1304 FILLER_42_109
*1305 FILLER_42_133
*1306 FILLER_42_139
*1307 FILLER_42_141
*1308 FILLER_42_153
*1309 FILLER_42_165
*1310 FILLER_42_177
*1311 FILLER_42_189
*1312 FILLER_42_195
*1313 FILLER_42_197
*1314 FILLER_42_209
*1315 FILLER_42_221
*1316 FILLER_42_233
*1317 FILLER_42_24
*1318 FILLER_42_245
*1319 FILLER_42_251
*1320 FILLER_42_253
*1321 FILLER_42_265
*1322 FILLER_42_277
*1323 FILLER_42_289
*1324 FILLER_42_29
*1325 FILLER_42_297
*1326 FILLER_42_3
*1327 FILLER_42_53
*1328 FILLER_42_77
*1329 FILLER_42_83
*1330 FILLER_42_85
*1331 FILLER_43_105
*1332 FILLER_43_111
*1333 FILLER_43_118
*1334 FILLER_43_130
*1335 FILLER_43_142
*1336 FILLER_43_15
*1337 FILLER_43_154
*1338 FILLER_43_166
*1339 FILLER_43_169
*1340 FILLER_43_181
*1341 FILLER_43_193
*1342 FILLER_43_205
*1343 FILLER_43_217
*1344 FILLER_43_223
*1345 FILLER_43_225
*1346 FILLER_43_237
*1347 FILLER_43_249
*1348 FILLER_43_261
*1349 FILLER_43_273
*1350 FILLER_43_279
*1351 FILLER_43_281
*1352 FILLER_43_293
*1353 FILLER_43_3
*1354 FILLER_43_39
*1355 FILLER_43_52
*1356 FILLER_43_57
*1357 FILLER_43_7
*1358 FILLER_43_81
*1359 FILLER_44_109
*1360 FILLER_44_117
*1361 FILLER_44_129
*1362 FILLER_44_137
*1363 FILLER_44_141
*1364 FILLER_44_153
*1365 FILLER_44_165
*1366 FILLER_44_177
*1367 FILLER_44_189
*1368 FILLER_44_195
*1369 FILLER_44_197
*1370 FILLER_44_209
*1371 FILLER_44_221
*1372 FILLER_44_233
*1373 FILLER_44_24
*1374 FILLER_44_245
*1375 FILLER_44_251
*1376 FILLER_44_253
*1377 FILLER_44_265
*1378 FILLER_44_277
*1379 FILLER_44_289
*1380 FILLER_44_29
*1381 FILLER_44_297
*1382 FILLER_44_3
*1383 FILLER_44_53
*1384 FILLER_44_77
*1385 FILLER_44_83
*1386 FILLER_44_85
*1387 FILLER_45_105
*1388 FILLER_45_111
*1389 FILLER_45_113
*1390 FILLER_45_137
*1391 FILLER_45_149
*1392 FILLER_45_161
*1393 FILLER_45_167
*1394 FILLER_45_169
*1395 FILLER_45_17
*1396 FILLER_45_181
*1397 FILLER_45_193
*1398 FILLER_45_205
*1399 FILLER_45_217
*1400 FILLER_45_223
*1401 FILLER_45_225
*1402 FILLER_45_237
*1403 FILLER_45_249
*1404 FILLER_45_261
*1405 FILLER_45_273
*1406 FILLER_45_279
*1407 FILLER_45_281
*1408 FILLER_45_293
*1409 FILLER_45_3
*1410 FILLER_45_41
*1411 FILLER_45_52
*1412 FILLER_45_57
*1413 FILLER_45_81
*1414 FILLER_46_109
*1415 FILLER_46_133
*1416 FILLER_46_139
*1417 FILLER_46_141
*1418 FILLER_46_153
*1419 FILLER_46_165
*1420 FILLER_46_177
*1421 FILLER_46_189
*1422 FILLER_46_195
*1423 FILLER_46_197
*1424 FILLER_46_209
*1425 FILLER_46_221
*1426 FILLER_46_233
*1427 FILLER_46_24
*1428 FILLER_46_245
*1429 FILLER_46_251
*1430 FILLER_46_253
*1431 FILLER_46_265
*1432 FILLER_46_277
*1433 FILLER_46_289
*1434 FILLER_46_297
*1435 FILLER_46_3
*1436 FILLER_46_37
*1437 FILLER_46_65
*1438 FILLER_46_76
*1439 FILLER_46_85
*1440 FILLER_47_105
*1441 FILLER_47_111
*1442 FILLER_47_119
*1443 FILLER_47_12
*1444 FILLER_47_131
*1445 FILLER_47_143
*1446 FILLER_47_155
*1447 FILLER_47_167
*1448 FILLER_47_169
*1449 FILLER_47_181
*1450 FILLER_47_193
*1451 FILLER_47_205
*1452 FILLER_47_217
*1453 FILLER_47_223
*1454 FILLER_47_225
*1455 FILLER_47_237
*1456 FILLER_47_249
*1457 FILLER_47_261
*1458 FILLER_47_273
*1459 FILLER_47_279
*1460 FILLER_47_281
*1461 FILLER_47_293
*1462 FILLER_47_3
*1463 FILLER_47_36
*1464 FILLER_47_40
*1465 FILLER_47_49
*1466 FILLER_47_55
*1467 FILLER_47_57
*1468 FILLER_47_81
*1469 FILLER_48_109
*1470 FILLER_48_119
*1471 FILLER_48_131
*1472 FILLER_48_139
*1473 FILLER_48_141
*1474 FILLER_48_153
*1475 FILLER_48_165
*1476 FILLER_48_177
*1477 FILLER_48_189
*1478 FILLER_48_195
*1479 FILLER_48_197
*1480 FILLER_48_209
*1481 FILLER_48_221
*1482 FILLER_48_233
*1483 FILLER_48_24
*1484 FILLER_48_245
*1485 FILLER_48_251
*1486 FILLER_48_253
*1487 FILLER_48_265
*1488 FILLER_48_277
*1489 FILLER_48_289
*1490 FILLER_48_297
*1491 FILLER_48_3
*1492 FILLER_48_38
*1493 FILLER_48_44
*1494 FILLER_48_65
*1495 FILLER_48_76
*1496 FILLER_48_85
*1497 FILLER_49_105
*1498 FILLER_49_111
*1499 FILLER_49_113
*1500 FILLER_49_125
*1501 FILLER_49_137
*1502 FILLER_49_149
*1503 FILLER_49_161
*1504 FILLER_49_167
*1505 FILLER_49_169
*1506 FILLER_49_181
*1507 FILLER_49_193
*1508 FILLER_49_205
*1509 FILLER_49_217
*1510 FILLER_49_223
*1511 FILLER_49_225
*1512 FILLER_49_237
*1513 FILLER_49_249
*1514 FILLER_49_261
*1515 FILLER_49_27
*1516 FILLER_49_273
*1517 FILLER_49_279
*1518 FILLER_49_281
*1519 FILLER_49_293
*1520 FILLER_49_3
*1521 FILLER_49_51
*1522 FILLER_49_55
*1523 FILLER_49_57
*1524 FILLER_49_81
*1525 FILLER_4_109
*1526 FILLER_4_121
*1527 FILLER_4_133
*1528 FILLER_4_139
*1529 FILLER_4_141
*1530 FILLER_4_15
*1531 FILLER_4_153
*1532 FILLER_4_165
*1533 FILLER_4_177
*1534 FILLER_4_189
*1535 FILLER_4_195
*1536 FILLER_4_197
*1537 FILLER_4_209
*1538 FILLER_4_221
*1539 FILLER_4_233
*1540 FILLER_4_245
*1541 FILLER_4_251
*1542 FILLER_4_253
*1543 FILLER_4_265
*1544 FILLER_4_27
*1545 FILLER_4_277
*1546 FILLER_4_289
*1547 FILLER_4_29
*1548 FILLER_4_297
*1549 FILLER_4_3
*1550 FILLER_4_41
*1551 FILLER_4_53
*1552 FILLER_4_65
*1553 FILLER_4_77
*1554 FILLER_4_83
*1555 FILLER_4_85
*1556 FILLER_4_97
*1557 FILLER_50_109
*1558 FILLER_50_133
*1559 FILLER_50_139
*1560 FILLER_50_141
*1561 FILLER_50_153
*1562 FILLER_50_165
*1563 FILLER_50_177
*1564 FILLER_50_189
*1565 FILLER_50_195
*1566 FILLER_50_197
*1567 FILLER_50_209
*1568 FILLER_50_221
*1569 FILLER_50_233
*1570 FILLER_50_24
*1571 FILLER_50_245