*SPEF "ieee 1481-1999"
*DESIGN "udxs_sqrt_top"
*DATE "11:11:11 Fri 11 11, 1111"
*VENDOR "OpenRCX"
*PROGRAM "Parallel Extraction"
*VERSION "1.0"
*DESIGN_FLOW "NAME_SCOPE LOCAL" "PIN_CAP NONE"
*DIVIDER /
*DELIMITER :
*BUS_DELIMITER []
*T_UNIT 1 NS
*C_UNIT 1 PF
*R_UNIT 1 OHM
*L_UNIT 1 HENRY

*NAME_MAP
*1 io_in[0]
*2 io_in[1]
*3 io_in[2]
*4 io_in[3]
*5 io_in[4]
*6 io_in[5]
*7 io_in[6]
*8 io_in[7]
*9 io_out[0]
*10 io_out[1]
*11 io_out[2]
*12 io_out[3]
*13 io_out[4]
*14 io_out[5]
*15 net8
*16 net9
*19 _000_
*20 _001_
*21 _002_
*22 _003_
*23 _004_
*24 _005_
*25 _006_
*26 _007_
*27 _008_
*28 _009_
*29 _010_
*30 _011_
*31 _012_
*32 _013_
*33 _014_
*34 _015_
*35 _016_
*36 _017_
*37 _018_
*38 _019_
*39 _020_
*40 _021_
*41 _022_
*42 _023_
*43 _024_
*44 _025_
*45 _026_
*46 _027_
*47 _028_
*48 _029_
*49 _030_
*50 _031_
*51 _032_
*52 _033_
*53 _034_
*54 _035_
*55 _036_
*56 _037_
*57 _038_
*58 _039_
*59 _040_
*60 _041_
*61 _042_
*62 _043_
*63 _044_
*64 _045_
*65 _046_
*66 _047_
*67 _048_
*68 _049_
*69 _050_
*70 _051_
*71 _052_
*72 _053_
*73 _054_
*74 _055_
*75 _056_
*76 _057_
*77 _058_
*78 _059_
*79 _060_
*80 _061_
*81 _062_
*82 _063_
*83 _064_
*84 _065_
*85 _066_
*86 _067_
*87 _068_
*88 _069_
*89 _070_
*90 _071_
*91 _072_
*92 _073_
*93 _074_
*94 _075_
*95 _076_
*96 _077_
*97 _078_
*98 _079_
*99 _080_
*100 _081_
*101 _082_
*102 _083_
*103 _084_
*104 _085_
*105 _086_
*106 _087_
*107 _088_
*108 _089_
*109 _090_
*110 _091_
*111 _092_
*112 _093_
*113 _094_
*114 _095_
*115 _096_
*116 _097_
*117 _098_
*118 _099_
*119 _100_
*120 _101_
*121 _102_
*122 _103_
*123 _104_
*124 _105_
*125 _106_
*126 _107_
*127 _108_
*128 _109_
*129 _110_
*130 _111_
*131 _112_
*132 _113_
*133 _114_
*134 _115_
*135 _116_
*136 _117_
*137 _118_
*138 _119_
*139 _120_
*140 _121_
*141 _122_
*142 _123_
*143 _124_
*144 _125_
*145 _126_
*146 _127_
*147 _128_
*148 _129_
*149 _130_
*150 _131_
*151 _132_
*152 _133_
*153 _134_
*154 _135_
*155 _136_
*156 _137_
*157 _138_
*158 _139_
*159 _140_
*160 _141_
*161 _142_
*162 _143_
*163 _144_
*164 _145_
*165 _146_
*166 _147_
*167 _148_
*168 _149_
*169 _150_
*170 _151_
*171 _152_
*172 _153_
*173 _154_
*174 _155_
*175 _156_
*176 _157_
*177 _158_
*178 _159_
*179 _160_
*180 _161_
*181 _162_
*182 _163_
*183 _164_
*184 _165_
*185 _166_
*186 _167_
*187 _168_
*188 _169_
*189 _170_
*190 _171_
*191 _172_
*192 _173_
*193 _174_
*194 _175_
*195 _176_
*196 _177_
*197 _178_
*198 _179_
*199 _180_
*200 _181_
*201 _182_
*202 _183_
*203 _184_
*204 _185_
*205 _186_
*206 _187_
*207 _188_
*208 _189_
*209 _190_
*210 _191_
*211 _192_
*212 _193_
*213 _194_
*214 _195_
*215 _196_
*216 _197_
*217 _198_
*218 _199_
*219 _200_
*220 _201_
*221 _202_
*222 _203_
*223 _204_
*224 _205_
*225 _206_
*226 _207_
*227 _208_
*228 _209_
*229 _210_
*230 _211_
*231 _212_
*232 _213_
*233 _214_
*234 _215_
*235 _216_
*236 _217_
*237 _218_
*238 _219_
*239 _220_
*240 _221_
*241 _222_
*242 _223_
*243 _224_
*244 _225_
*245 _226_
*246 _227_
*247 _228_
*248 _229_
*249 _230_
*250 _231_
*251 _232_
*252 _233_
*253 _234_
*254 _235_
*255 _236_
*256 _237_
*257 _238_
*258 _239_
*259 _240_
*260 _241_
*261 _242_
*262 _243_
*263 _244_
*264 _245_
*265 _246_
*266 _247_
*267 _248_
*268 _249_
*269 _250_
*270 _251_
*271 _252_
*272 _253_
*273 _254_
*274 _255_
*275 _256_
*276 _257_
*277 _258_
*278 _259_
*279 _260_
*280 _261_
*281 _262_
*282 _263_
*283 _264_
*284 _265_
*285 _266_
*286 _267_
*287 _268_
*288 _269_
*289 _270_
*290 _271_
*291 _272_
*292 _273_
*293 _274_
*294 _275_
*295 _276_
*296 _277_
*297 _278_
*298 _279_
*299 _280_
*300 _281_
*301 _282_
*302 _283_
*303 _284_
*304 _285_
*305 _286_
*306 _287_
*307 _288_
*308 _289_
*309 _290_
*310 _291_
*311 _292_
*312 _293_
*313 _294_
*314 _295_
*315 _296_
*316 _297_
*317 _298_
*318 _299_
*319 _300_
*320 _301_
*321 _302_
*322 _303_
*323 clknet_0_io_in[0]
*324 clknet_1_0__leaf_io_in[0]
*325 clknet_1_1__leaf_io_in[0]
*326 net1
*327 net2
*328 net3
*329 net4
*330 net5
*331 net6
*332 net7
*333 sqrt_core\.att\[2\]
*334 sqrt_core\.att\[4\]
*335 sqrt_core\.att\[6\]
*336 sqrt_core\.eps\[0\]
*337 sqrt_core\.eps\[10\]
*338 sqrt_core\.eps\[1\]
*339 sqrt_core\.eps\[2\]
*340 sqrt_core\.eps\[3\]
*341 sqrt_core\.eps\[4\]
*342 sqrt_core\.eps\[5\]
*343 sqrt_core\.eps\[6\]
*344 sqrt_core\.eps\[7\]
*345 sqrt_core\.eps\[8\]
*346 sqrt_core\.eps\[9\]
*347 sqrt_core\.iteration\[0\]
*348 sqrt_core\.iteration\[1\]
*349 sqrt_core\.iteratorA\.prev_res\[0\]
*350 sqrt_core\.iteratorA\.prev_res\[1\]
*351 sqrt_core\.iteratorA\.prev_res\[2\]
*352 sqrt_core\.iteratorA\.prev_res\[3\]
*353 sqrt_core\.iteratorA\.prev_res\[4\]
*354 sqrt_core\.iteratorA\.prev_res\[5\]
*355 FILLER_0_109
*356 FILLER_0_113
*357 FILLER_0_125
*358 FILLER_0_137
*359 FILLER_0_141
*360 FILLER_0_15
*361 FILLER_0_153
*362 FILLER_0_165
*363 FILLER_0_169
*364 FILLER_0_181
*365 FILLER_0_193
*366 FILLER_0_197
*367 FILLER_0_209
*368 FILLER_0_221
*369 FILLER_0_225
*370 FILLER_0_237
*371 FILLER_0_249
*372 FILLER_0_253
*373 FILLER_0_265
*374 FILLER_0_27
*375 FILLER_0_277
*376 FILLER_0_281
*377 FILLER_0_29
*378 FILLER_0_293
*379 FILLER_0_3
*380 FILLER_0_41
*381 FILLER_0_53
*382 FILLER_0_57
*383 FILLER_0_69
*384 FILLER_0_81
*385 FILLER_0_85
*386 FILLER_0_97
*387 FILLER_10_112
*388 FILLER_10_123
*389 FILLER_10_135
*390 FILLER_10_139
*391 FILLER_10_141
*392 FILLER_10_153
*393 FILLER_10_165
*394 FILLER_10_177
*395 FILLER_10_189
*396 FILLER_10_195
*397 FILLER_10_197
*398 FILLER_10_209
*399 FILLER_10_22
*400 FILLER_10_221
*401 FILLER_10_233
*402 FILLER_10_245
*403 FILLER_10_251
*404 FILLER_10_253
*405 FILLER_10_265
*406 FILLER_10_277
*407 FILLER_10_289
*408 FILLER_10_297
*409 FILLER_10_3
*410 FILLER_10_36
*411 FILLER_10_44
*412 FILLER_10_51
*413 FILLER_10_60
*414 FILLER_10_66
*415 FILLER_10_76
*416 FILLER_10_85
*417 FILLER_10_97
*418 FILLER_11_106
*419 FILLER_11_113
*420 FILLER_11_125
*421 FILLER_11_137
*422 FILLER_11_149
*423 FILLER_11_161
*424 FILLER_11_167
*425 FILLER_11_169
*426 FILLER_11_17
*427 FILLER_11_181
*428 FILLER_11_193
*429 FILLER_11_205
*430 FILLER_11_217
*431 FILLER_11_223
*432 FILLER_11_225
*433 FILLER_11_237
*434 FILLER_11_249
*435 FILLER_11_261
*436 FILLER_11_27
*437 FILLER_11_273
*438 FILLER_11_279
*439 FILLER_11_281
*440 FILLER_11_293
*441 FILLER_11_3
*442 FILLER_11_38
*443 FILLER_11_46
*444 FILLER_11_52
*445 FILLER_11_62
*446 FILLER_11_66
*447 FILLER_11_76
*448 FILLER_11_88
*449 FILLER_11_9
*450 FILLER_11_94
*451 FILLER_12_102
*452 FILLER_12_114
*453 FILLER_12_126
*454 FILLER_12_138
*455 FILLER_12_141
*456 FILLER_12_153
*457 FILLER_12_165
*458 FILLER_12_177
*459 FILLER_12_189
*460 FILLER_12_195
*461 FILLER_12_197
*462 FILLER_12_209
*463 FILLER_12_221
*464 FILLER_12_23
*465 FILLER_12_233
*466 FILLER_12_245
*467 FILLER_12_251
*468 FILLER_12_253
*469 FILLER_12_265
*470 FILLER_12_27
*471 FILLER_12_277
*472 FILLER_12_289
*473 FILLER_12_29
*474 FILLER_12_297
*475 FILLER_12_3
*476 FILLER_12_42
*477 FILLER_12_49
*478 FILLER_12_60
*479 FILLER_12_75
*480 FILLER_12_83
*481 FILLER_12_92
*482 FILLER_13_108
*483 FILLER_13_116
*484 FILLER_13_12
*485 FILLER_13_128
*486 FILLER_13_140
*487 FILLER_13_152
*488 FILLER_13_164
*489 FILLER_13_169
*490 FILLER_13_181
*491 FILLER_13_19
*492 FILLER_13_193
*493 FILLER_13_205
*494 FILLER_13_217
*495 FILLER_13_223
*496 FILLER_13_225
*497 FILLER_13_237
*498 FILLER_13_249
*499 FILLER_13_261
*500 FILLER_13_273
*501 FILLER_13_279
*502 FILLER_13_281
*503 FILLER_13_293
*504 FILLER_13_31
*505 FILLER_13_45
*506 FILLER_13_53
*507 FILLER_13_57
*508 FILLER_13_69
*509 FILLER_13_73
*510 FILLER_13_78
*511 FILLER_13_86
*512 FILLER_13_90
*513 FILLER_13_97
*514 FILLER_14_102
*515 FILLER_14_113
*516 FILLER_14_124
*517 FILLER_14_136
*518 FILLER_14_141
*519 FILLER_14_153
*520 FILLER_14_165
*521 FILLER_14_177
*522 FILLER_14_189
*523 FILLER_14_195
*524 FILLER_14_197
*525 FILLER_14_20
*526 FILLER_14_209
*527 FILLER_14_221
*528 FILLER_14_233
*529 FILLER_14_245
*530 FILLER_14_251
*531 FILLER_14_253
*532 FILLER_14_265
*533 FILLER_14_277
*534 FILLER_14_289
*535 FILLER_14_29
*536 FILLER_14_297
*537 FILLER_14_3
*538 FILLER_14_34
*539 FILLER_14_41
*540 FILLER_14_56
*541 FILLER_14_75
*542 FILLER_14_8
*543 FILLER_14_83
*544 FILLER_14_85
*545 FILLER_14_94
*546 FILLER_15_111
*547 FILLER_15_113
*548 FILLER_15_12
*549 FILLER_15_125
*550 FILLER_15_137
*551 FILLER_15_149
*552 FILLER_15_16
*553 FILLER_15_161
*554 FILLER_15_167
*555 FILLER_15_169
*556 FILLER_15_181
*557 FILLER_15_193
*558 FILLER_15_205
*559 FILLER_15_217
*560 FILLER_15_223
*561 FILLER_15_225
*562 FILLER_15_237
*563 FILLER_15_249
*564 FILLER_15_26
*565 FILLER_15_261
*566 FILLER_15_273
*567 FILLER_15_279
*568 FILLER_15_281
*569 FILLER_15_293
*570 FILLER_15_37
*571 FILLER_15_41
*572 FILLER_15_48
*573 FILLER_15_60
*574 FILLER_15_75
*575 FILLER_15_83
*576 FILLER_15_92
*577 FILLER_15_99
*578 FILLER_16_102
*579 FILLER_16_112
*580 FILLER_16_124
*581 FILLER_16_136
*582 FILLER_16_141
*583 FILLER_16_153
*584 FILLER_16_165
*585 FILLER_16_177
*586 FILLER_16_189
*587 FILLER_16_195
*588 FILLER_16_197
*589 FILLER_16_209
*590 FILLER_16_22
*591 FILLER_16_221
*592 FILLER_16_233
*593 FILLER_16_245
*594 FILLER_16_251
*595 FILLER_16_253
*596 FILLER_16_265
*597 FILLER_16_277
*598 FILLER_16_289
*599 FILLER_16_29
*600 FILLER_16_297
*601 FILLER_16_3
*602 FILLER_16_38
*603 FILLER_16_44
*604 FILLER_16_49
*605 FILLER_16_59
*606 FILLER_16_66
*607 FILLER_16_78
*608 FILLER_16_85
*609 FILLER_16_93
*610 FILLER_17_100
*611 FILLER_17_107
*612 FILLER_17_111
*613 FILLER_17_120
*614 FILLER_17_132
*615 FILLER_17_144
*616 FILLER_17_15
*617 FILLER_17_156
*618 FILLER_17_169
*619 FILLER_17_181
*620 FILLER_17_193
*621 FILLER_17_205
*622 FILLER_17_217
*623 FILLER_17_223
*624 FILLER_17_225
*625 FILLER_17_237
*626 FILLER_17_249
*627 FILLER_17_261
*628 FILLER_17_27
*629 FILLER_17_273
*630 FILLER_17_279
*631 FILLER_17_281
*632 FILLER_17_293
*633 FILLER_17_3
*634 FILLER_17_38
*635 FILLER_17_46
*636 FILLER_17_52
*637 FILLER_17_62
*638 FILLER_17_74
*639 FILLER_17_8
*640 FILLER_17_87
*641 FILLER_17_94
*642 FILLER_18_110
*643 FILLER_18_122
*644 FILLER_18_134
*645 FILLER_18_14
*646 FILLER_18_141
*647 FILLER_18_153
*648 FILLER_18_165
*649 FILLER_18_177
*650 FILLER_18_189
*651 FILLER_18_195
*652 FILLER_18_197
*653 FILLER_18_209
*654 FILLER_18_221
*655 FILLER_18_233
*656 FILLER_18_24
*657 FILLER_18_245
*658 FILLER_18_251
*659 FILLER_18_253
*660 FILLER_18_265
*661 FILLER_18_277
*662 FILLER_18_289
*663 FILLER_18_297
*664 FILLER_18_36
*665 FILLER_18_47
*666 FILLER_18_53
*667 FILLER_18_6
*668 FILLER_18_63
*669 FILLER_18_69
*670 FILLER_18_77
*671 FILLER_18_83
*672 FILLER_18_93
*673 FILLER_18_99
*674 FILLER_19_100
*675 FILLER_19_113
*676 FILLER_19_125
*677 FILLER_19_137
*678 FILLER_19_149
*679 FILLER_19_161
*680 FILLER_19_167
*681 FILLER_19_169
*682 FILLER_19_181
*683 FILLER_19_193
*684 FILLER_19_205
*685 FILLER_19_21
*686 FILLER_19_217
*687 FILLER_19_223
*688 FILLER_19_225
*689 FILLER_19_237
*690 FILLER_19_249
*691 FILLER_19_261
*692 FILLER_19_273
*693 FILLER_19_279
*694 FILLER_19_281
*695 FILLER_19_293
*696 FILLER_19_3
*697 FILLER_19_37
*698 FILLER_19_45
*699 FILLER_19_53
*700 FILLER_19_57
*701 FILLER_19_61
*702 FILLER_19_75
*703 FILLER_19_83
*704 FILLER_1_105
*705 FILLER_1_111
*706 FILLER_1_113
*707 FILLER_1_125
*708 FILLER_1_137
*709 FILLER_1_149
*710 FILLER_1_15
*711 FILLER_1_161
*712 FILLER_1_167
*713 FILLER_1_169
*714 FILLER_1_181
*715 FILLER_1_193
*716 FILLER_1_205
*717 FILLER_1_217
*718 FILLER_1_223
*719 FILLER_1_225
*720 FILLER_1_237
*721 FILLER_1_249
*722 FILLER_1_261
*723 FILLER_1_27
*724 FILLER_1_273
*725 FILLER_1_279
*726 FILLER_1_281
*727 FILLER_1_293
*728 FILLER_1_3
*729 FILLER_1_39
*730 FILLER_1_51
*731 FILLER_1_55
*732 FILLER_1_57
*733 FILLER_1_69
*734 FILLER_1_81
*735 FILLER_1_93
*736 FILLER_20_101
*737 FILLER_20_107
*738 FILLER_20_119
*739 FILLER_20_12
*740 FILLER_20_131
*741 FILLER_20_139
*742 FILLER_20_141
*743 FILLER_20_153
*744 FILLER_20_165
*745 FILLER_20_177
*746 FILLER_20_189
*747 FILLER_20_195
*748 FILLER_20_197
*749 FILLER_20_209
*750 FILLER_20_21
*751 FILLER_20_221
*752 FILLER_20_233
*753 FILLER_20_245
*754 FILLER_20_251
*755 FILLER_20_253
*756 FILLER_20_265
*757 FILLER_20_27
*758 FILLER_20_277
*759 FILLER_20_289
*760 FILLER_20_297
*761 FILLER_20_35
*762 FILLER_20_43
*763 FILLER_20_52
*764 FILLER_20_60
*765 FILLER_20_64
*766 FILLER_20_74
*767 FILLER_20_82
*768 FILLER_20_85
*769 FILLER_20_97
*770 FILLER_21_108
*771 FILLER_21_116
*772 FILLER_21_128
*773 FILLER_21_140
*774 FILLER_21_15
*775 FILLER_21_152
*776 FILLER_21_164
*777 FILLER_21_169
*778 FILLER_21_181
*779 FILLER_21_193
*780 FILLER_21_205
*781 FILLER_21_217
*782 FILLER_21_223
*783 FILLER_21_225
*784 FILLER_21_237
*785 FILLER_21_249
*786 FILLER_21_261
*787 FILLER_21_273
*788 FILLER_21_279
*789 FILLER_21_281
*790 FILLER_21_293
*791 FILLER_21_3
*792 FILLER_21_36
*793 FILLER_21_52
*794 FILLER_21_57
*795 FILLER_21_67
*796 FILLER_21_7
*797 FILLER_21_74
*798 FILLER_21_84
*799 FILLER_21_92
*800 FILLER_22_10
*801 FILLER_22_109
*802 FILLER_22_116
*803 FILLER_22_128
*804 FILLER_22_141
*805 FILLER_22_153
*806 FILLER_22_165
*807 FILLER_22_177
*808 FILLER_22_189
*809 FILLER_22_195
*810 FILLER_22_197
*811 FILLER_22_20
*812 FILLER_22_209
*813 FILLER_22_221
*814 FILLER_22_233
*815 FILLER_22_245
*816 FILLER_22_251
*817 FILLER_22_253
*818 FILLER_22_265
*819 FILLER_22_277
*820 FILLER_22_289
*821 FILLER_22_297
*822 FILLER_22_36
*823 FILLER_22_47
*824 FILLER_22_55
*825 FILLER_22_6
*826 FILLER_22_65
*827 FILLER_22_76
*828 FILLER_22_85
*829 FILLER_22_99
*830 FILLER_23_100
*831 FILLER_23_113
*832 FILLER_23_12
*833 FILLER_23_125
*834 FILLER_23_137
*835 FILLER_23_149
*836 FILLER_23_161
*837 FILLER_23_167
*838 FILLER_23_169
*839 FILLER_23_18
*840 FILLER_23_181
*841 FILLER_23_193
*842 FILLER_23_205
*843 FILLER_23_217
*844 FILLER_23_223
*845 FILLER_23_225
*846 FILLER_23_237
*847 FILLER_23_249
*848 FILLER_23_25
*849 FILLER_23_261
*850 FILLER_23_273
*851 FILLER_23_279
*852 FILLER_23_281
*853 FILLER_23_293
*854 FILLER_23_34
*855 FILLER_23_41
*856 FILLER_23_45
*857 FILLER_23_49
*858 FILLER_23_55
*859 FILLER_23_60
*860 FILLER_23_76
*861 FILLER_23_83
*862 FILLER_23_91
*863 FILLER_24_105
*864 FILLER_24_113
*865 FILLER_24_123
*866 FILLER_24_135
*867 FILLER_24_139
*868 FILLER_24_141
*869 FILLER_24_153
*870 FILLER_24_165
*871 FILLER_24_177
*872 FILLER_24_189
*873 FILLER_24_195
*874 FILLER_24_197
*875 FILLER_24_20
*876 FILLER_24_209
*877 FILLER_24_221
*878 FILLER_24_233
*879 FILLER_24_245
*880 FILLER_24_251
*881 FILLER_24_253
*882 FILLER_24_265
*883 FILLER_24_277
*884 FILLER_24_289
*885 FILLER_24_297
*886 FILLER_24_3
*887 FILLER_24_34
*888 FILLER_24_58
*889 FILLER_24_66
*890 FILLER_24_74
*891 FILLER_24_82
*892 FILLER_24_88
*893 FILLER_24_99
*894 FILLER_25_10
*895 FILLER_25_103
*896 FILLER_25_111
*897 FILLER_25_116
*898 FILLER_25_128
*899 FILLER_25_140
*900 FILLER_25_152
*901 FILLER_25_164
*902 FILLER_25_169
*903 FILLER_25_18
*904 FILLER_25_181
*905 FILLER_25_193
*906 FILLER_25_205
*907 FILLER_25_217
*908 FILLER_25_223
*909 FILLER_25_225
*910 FILLER_25_237
*911 FILLER_25_249
*912 FILLER_25_261
*913 FILLER_25_27
*914 FILLER_25_273
*915 FILLER_25_279
*916 FILLER_25_281
*917 FILLER_25_293
*918 FILLER_25_3
*919 FILLER_25_40
*920 FILLER_25_48
*921 FILLER_25_52
*922 FILLER_25_67
*923 FILLER_25_78
*924 FILLER_25_84
*925 FILLER_25_92
*926 FILLER_26_108
*927 FILLER_26_112
*928 FILLER_26_120
*929 FILLER_26_132
*930 FILLER_26_141
*931 FILLER_26_153
*932 FILLER_26_165
*933 FILLER_26_177
*934 FILLER_26_18
*935 FILLER_26_189
*936 FILLER_26_195
*937 FILLER_26_197
*938 FILLER_26_209
*939 FILLER_26_221
*940 FILLER_26_233
*941 FILLER_26_245
*942 FILLER_26_251
*943 FILLER_26_253
*944 FILLER_26_26
*945 FILLER_26_265
*946 FILLER_26_277
*947 FILLER_26_289
*948 FILLER_26_297
*949 FILLER_26_33
*950 FILLER_26_41
*951 FILLER_26_51
*952 FILLER_26_59
*953 FILLER_26_64
*954 FILLER_26_76
*955 FILLER_26_8
*956 FILLER_26_90
*957 FILLER_26_98
*958 FILLER_27_10
*959 FILLER_27_101
*960 FILLER_27_109
*961 FILLER_27_120
*962 FILLER_27_132
*963 FILLER_27_144
*964 FILLER_27_156
*965 FILLER_27_169
*966 FILLER_27_18
*967 FILLER_27_181
*968 FILLER_27_193
*969 FILLER_27_205
*970 FILLER_27_217
*971 FILLER_27_223
*972 FILLER_27_225
*973 FILLER_27_237
*974 FILLER_27_249
*975 FILLER_27_261
*976 FILLER_27_273
*977 FILLER_27_279
*978 FILLER_27_28
*979 FILLER_27_281
*980 FILLER_27_293
*981 FILLER_27_32
*982 FILLER_27_39
*983 FILLER_27_52
*984 FILLER_27_6
*985 FILLER_27_63
*986 FILLER_27_71
*987 FILLER_27_82
*988 FILLER_27_90
*989 FILLER_28_100
*990 FILLER_28_107
*991 FILLER_28_116
*992 FILLER_28_128
*993 FILLER_28_141
*994 FILLER_28_15
*995 FILLER_28_153
*996 FILLER_28_165
*997 FILLER_28_177
*998 FILLER_28_189
*999 FILLER_28_195
*1000 FILLER_28_197
*1001 FILLER_28_209
*1002 FILLER_28_221
*1003 FILLER_28_233
*1004 FILLER_28_24
*1005 FILLER_28_245
*1006 FILLER_28_251
*1007 FILLER_28_253
*1008 FILLER_28_265
*1009 FILLER_28_277
*1010 FILLER_28_289
*1011 FILLER_28_29
*1012 FILLER_28_297
*1013 FILLER_28_3
*1014 FILLER_28_53
*1015 FILLER_28_74
*1016 FILLER_28_82
*1017 FILLER_28_92
*1018 FILLER_29_103
*1019 FILLER_29_11
*1020 FILLER_29_111
*1021 FILLER_29_116
*1022 FILLER_29_128
*1023 FILLER_29_140
*1024 FILLER_29_152
*1025 FILLER_29_164
*1026 FILLER_29_169
*1027 FILLER_29_181
*1028 FILLER_29_193
*1029 FILLER_29_205
*1030 FILLER_29_217
*1031 FILLER_29_223
*1032 FILLER_29_225
*1033 FILLER_29_237
*1034 FILLER_29_249
*1035 FILLER_29_261
*1036 FILLER_29_273
*1037 FILLER_29_279
*1038 FILLER_29_281
*1039 FILLER_29_293
*1040 FILLER_29_3
*1041 FILLER_29_31
*1042 FILLER_29_41
*1043 FILLER_29_50
*1044 FILLER_29_60
*1045 FILLER_29_76
*1046 FILLER_29_86
*1047 FILLER_29_95
*1048 FILLER_2_109
*1049 FILLER_2_121
*1050 FILLER_2_133
*1051 FILLER_2_139
*1052 FILLER_2_141
*1053 FILLER_2_15
*1054 FILLER_2_153
*1055 FILLER_2_165
*1056 FILLER_2_177
*1057 FILLER_2_189
*1058 FILLER_2_195
*1059 FILLER_2_197
*1060 FILLER_2_209
*1061 FILLER_2_221
*1062 FILLER_2_233
*1063 FILLER_2_245
*1064 FILLER_2_251
*1065 FILLER_2_253
*1066 FILLER_2_265
*1067 FILLER_2_27
*1068 FILLER_2_277
*1069 FILLER_2_289
*1070 FILLER_2_29
*1071 FILLER_2_297
*1072 FILLER_2_3
*1073 FILLER_2_41
*1074 FILLER_2_53
*1075 FILLER_2_65
*1076 FILLER_2_77
*1077 FILLER_2_83
*1078 FILLER_2_85
*1079 FILLER_2_97
*1080 FILLER_30_101
*1081 FILLER_30_109
*1082 FILLER_30_113
*1083 FILLER_30_118
*1084 FILLER_30_130
*1085 FILLER_30_138
*1086 FILLER_30_141
*1087 FILLER_30_153
*1088 FILLER_30_165
*1089 FILLER_30_177
*1090 FILLER_30_189
*1091 FILLER_30_195
*1092 FILLER_30_197
*1093 FILLER_30_20
*1094 FILLER_30_209
*1095 FILLER_30_221
*1096 FILLER_30_233
*1097 FILLER_30_245
*1098 FILLER_30_251
*1099 FILLER_30_253
*1100 FILLER_30_265
*1101 FILLER_30_277
*1102 FILLER_30_289
*1103 FILLER_30_29
*1104 FILLER_30_297
*1105 FILLER_30_36
*1106 FILLER_30_42
*1107 FILLER_30_49
*1108 FILLER_30_56
*1109 FILLER_30_68
*1110 FILLER_30_80
*1111 FILLER_30_85
*1112 FILLER_30_89
*1113 FILLER_30_95
*1114 FILLER_31_105
*1115 FILLER_31_111
*1116 FILLER_31_120
*1117 FILLER_31_129
*1118 FILLER_31_141
*1119 FILLER_31_15
*1120 FILLER_31_153
*1121 FILLER_31_165
*1122 FILLER_31_169
*1123 FILLER_31_181
*1124 FILLER_31_193
*1125 FILLER_31_205
*1126 FILLER_31_217
*1127 FILLER_31_223
*1128 FILLER_31_225
*1129 FILLER_31_237
*1130 FILLER_31_249
*1131 FILLER_31_261
*1132 FILLER_31_273
*1133 FILLER_31_279
*1134 FILLER_31_281
*1135 FILLER_31_293
*1136 FILLER_31_3
*1137 FILLER_31_36
*1138 FILLER_31_47
*1139 FILLER_31_55
*1140 FILLER_31_73
*1141 FILLER_31_80
*1142 FILLER_31_94
*1143 FILLER_32_103
*1144 FILLER_32_111
*1145 FILLER_32_118
*1146 FILLER_32_130
*1147 FILLER_32_138
*1148 FILLER_32_14
*1149 FILLER_32_141
*1150 FILLER_32_153
*1151 FILLER_32_165
*1152 FILLER_32_177
*1153 FILLER_32_189
*1154 FILLER_32_195
*1155 FILLER_32_197
*1156 FILLER_32_209
*1157 FILLER_32_221
*1158 FILLER_32_233
*1159 FILLER_32_24
*1160 FILLER_32_245
*1161 FILLER_32_251
*1162 FILLER_32_253
*1163 FILLER_32_265
*1164 FILLER_32_277
*1165 FILLER_32_289
*1166 FILLER_32_297
*1167 FILLER_32_36
*1168 FILLER_32_50
*1169 FILLER_32_59
*1170 FILLER_32_6
*1171 FILLER_32_70
*1172 FILLER_32_80
*1173 FILLER_32_92
*1174 FILLER_33_102
*1175 FILLER_33_110
*1176 FILLER_33_113
*1177 FILLER_33_122
*1178 FILLER_33_129
*1179 FILLER_33_141
*1180 FILLER_33_15
*1181 FILLER_33_153
*1182 FILLER_33_165
*1183 FILLER_33_169
*1184 FILLER_33_181
*1185 FILLER_33_193
*1186 FILLER_33_20
*1187 FILLER_33_205
*1188 FILLER_33_217
*1189 FILLER_33_223
*1190 FILLER_33_225
*1191 FILLER_33_237
*1192 FILLER_33_249
*1193 FILLER_33_261
*1194 FILLER_33_273
*1195 FILLER_33_279
*1196 FILLER_33_281
*1197 FILLER_33_293
*1198 FILLER_33_3
*1199 FILLER_33_32
*1200 FILLER_33_39
*1201 FILLER_33_43
*1202 FILLER_33_52
*1203 FILLER_33_73
*1204 FILLER_33_87
*1205 FILLER_33_94
*1206 FILLER_34_103
*1207 FILLER_34_111
*1208 FILLER_34_119
*1209 FILLER_34_131
*1210 FILLER_34_139
*1211 FILLER_34_141
*1212 FILLER_34_153
*1213 FILLER_34_165
*1214 FILLER_34_177
*1215 FILLER_34_18
*1216 FILLER_34_189
*1217 FILLER_34_195
*1218 FILLER_34_197
*1219 FILLER_34_209
*1220 FILLER_34_221
*1221 FILLER_34_233
*1222 FILLER_34_245
*1223 FILLER_34_251
*1224 FILLER_34_253
*1225 FILLER_34_26
*1226 FILLER_34_265
*1227 FILLER_34_277
*1228 FILLER_34_289
*1229 FILLER_34_297
*1230 FILLER_34_3
*1231 FILLER_34_39
*1232 FILLER_34_58
*1233 FILLER_34_66
*1234 FILLER_34_75
*1235 FILLER_34_83
*1236 FILLER_34_92
*1237 FILLER_35_107
*1238 FILLER_35_111
*1239 FILLER_35_121
*1240 FILLER_35_132
*1241 FILLER_35_144
*1242 FILLER_35_156
*1243 FILLER_35_169
*1244 FILLER_35_181
*1245 FILLER_35_193
*1246 FILLER_35_20
*1247 FILLER_35_205
*1248 FILLER_35_217
*1249 FILLER_35_223
*1250 FILLER_35_225
*1251 FILLER_35_237
*1252 FILLER_35_249
*1253 FILLER_35_261
*1254 FILLER_35_27
*1255 FILLER_35_273
*1256 FILLER_35_279
*1257 FILLER_35_281
*1258 FILLER_35_293
*1259 FILLER_35_31
*1260 FILLER_35_39
*1261 FILLER_35_49
*1262 FILLER_35_55
*1263 FILLER_35_57
*1264 FILLER_35_61
*1265 FILLER_35_72
*1266 FILLER_35_80
*1267 FILLER_35_91
*1268 FILLER_35_97
*1269 FILLER_36_102
*1270 FILLER_36_110
*1271 FILLER_36_118
*1272 FILLER_36_123
*1273 FILLER_36_135
*1274 FILLER_36_139
*1275 FILLER_36_14
*1276 FILLER_36_141
*1277 FILLER_36_153
*1278 FILLER_36_165
*1279 FILLER_36_177
*1280 FILLER_36_189
*1281 FILLER_36_195
*1282 FILLER_36_197
*1283 FILLER_36_209
*1284 FILLER_36_221
*1285 FILLER_36_23
*1286 FILLER_36_233
*1287 FILLER_36_245
*1288 FILLER_36_251
*1289 FILLER_36_253
*1290 FILLER_36_265
*1291 FILLER_36_27
*1292 FILLER_36_277
*1293 FILLER_36_289
*1294 FILLER_36_29
*1295 FILLER_36_297
*1296 FILLER_36_3
*1297 FILLER_36_42
*1298 FILLER_36_49
*1299 FILLER_36_59
*1300 FILLER_36_71
*1301 FILLER_36_80
*1302 FILLER_36_85
*1303 FILLER_36_98
*1304 FILLER_37_103
*1305 FILLER_37_111
*1306 FILLER_37_118
*1307 FILLER_37_125
*1308 FILLER_37_137
*1309 FILLER_37_149
*1310 FILLER_37_161
*1311 FILLER_37_167
*1312 FILLER_37_169
*1313 FILLER_37_181
*1314 FILLER_37_193
*1315 FILLER_37_205
*1316 FILLER_37_217
*1317 FILLER_37_223
*1318 FILLER_37_225
*1319 FILLER_37_237
*1320 FILLER_37_249
*1321 FILLER_37_261
*1322 FILLER_37_273
*1323 FILLER_37_279
*1324 FILLER_37_281
*1325 FILLER_37_293
*1326 FILLER_37_3
*1327 FILLER_37_31
*1328 FILLER_37_41
*1329 FILLER_37_52
*1330 FILLER_37_64
*1331 FILLER_37_74
*1332 FILLER_37_81
*1333 FILLER_37_92
*1334 FILLER_38_105
*1335 FILLER_38_109
*1336 FILLER_38_117
*1337 FILLER_38_124
*1338 FILLER_38_131
*1339 FILLER_38_139
*1340 FILLER_38_141
*1341 FILLER_38_153
*1342 FILLER_38_165
*1343 FILLER_38_177
*1344 FILLER_38_189
*1345 FILLER_38_195
*1346 FILLER_38_197
*1347 FILLER_38_20
*1348 FILLER_38_209
*1349 FILLER_38_221
*1350 FILLER_38_233
*1351 FILLER_38_245
*1352 FILLER_38_251
*1353 FILLER_38_253
*1354 FILLER_38_265
*1355 FILLER_38_277
*1356 FILLER_38_289
*1357 FILLER_38_297
*1358 FILLER_38_39
*1359 FILLER_38_49
*1360 FILLER_38_56
*1361 FILLER_38_64
*1362 FILLER_38_70
*1363 FILLER_38_75
*1364 FILLER_38_83
*1365 FILLER_38_85
*1366 FILLER_38_91
*1367 FILLER_39_108
*1368 FILLER_39_123
*1369 FILLER_39_135
*1370 FILLER_39_147
*1371 FILLER_39_159
*1372 FILLER_39_167
*1373 FILLER_39_169
*1374 FILLER_39_181
*1375 FILLER_39_193
*1376 FILLER_39_20
*1377 FILLER_39_205
*1378 FILLER_39_217
*1379 FILLER_39_223
*1380 FILLER_39_225
*1381 FILLER_39_237
*1382 FILLER_39_249
*1383 FILLER_39_26
*1384 FILLER_39_261
*1385 FILLER_39_273
*1386 FILLER_39_279
*1387 FILLER_39_281
*1388 FILLER_39_293
*1389 FILLER_39_3
*1390 FILLER_39_43
*1391 FILLER_39_47
*1392 FILLER_39_52
*1393 FILLER_39_61
*1394 FILLER_39_7
*1395 FILLER_39_72
*1396 FILLER_39_86
*1397 FILLER_39_96
*1398 FILLER_3_105
*1399 FILLER_3_111
*1400 FILLER_3_113
*1401 FILLER_3_125
*1402 FILLER_3_137
*1403 FILLER_3_149
*1404 FILLER_3_15
*1405 FILLER_3_161
*1406 FILLER_3_167
*1407 FILLER_3_169
*1408 FILLER_3_181
*1409 FILLER_3_193
*1410 FILLER_3_205
*1411 FILLER_3_217
*1412 FILLER_3_223
*1413 FILLER_3_225
*1414 FILLER_3_237
*1415 FILLER_3_249
*1416 FILLER_3_261
*1417 FILLER_3_27
*1418 FILLER_3_273
*1419 FILLER_3_279
*1420 FILLER_3_281
*1421 FILLER_3_293
*1422 FILLER_3_3
*1423 FILLER_3_39
*1424 FILLER_3_51
*1425 FILLER_3_55
*1426 FILLER_3_57
*1427 FILLER_3_69
*1428 FILLER_3_81
*1429 FILLER_3_93
*1430 FILLER_40_101
*1431 FILLER_40_111
*1432 FILLER_40_122
*1433 FILLER_40_134
*1434 FILLER_40_141
*1435 FILLER_40_15
*1436 FILLER_40_153
*1437 FILLER_40_165
*1438 FILLER_40_177
*1439 FILLER_40_189
*1440 FILLER_40_195
*1441 FILLER_40_197
*1442 FILLER_40_20
*1443 FILLER_40_209
*1444 FILLER_40_221
*1445 FILLER_40_233
*1446 FILLER_40_245
*1447 FILLER_40_251
*1448 FILLER_40_253
*1449 FILLER_40_265
*1450 FILLER_40_277
*1451 FILLER_40_289
*1452 FILLER_40_297
*1453 FILLER_40_3
*1454 FILLER_40_36
*1455 FILLER_40_40
*1456 FILLER_40_48
*1457 FILLER_40_59
*1458 FILLER_40_63
*1459 FILLER_40_69
*1460 FILLER_40_80
*1461 FILLER_40_93
*1462 FILLER_41_105
*1463 FILLER_41_111
*1464 FILLER_41_119
*1465 FILLER_41_126
*1466 FILLER_41_138
*1467 FILLER_41_150
*1468 FILLER_41_162
*1469 FILLER_41_169
*1470 FILLER_41_181
*1471 FILLER_41_19
*1472 FILLER_41_193
*1473 FILLER_41_205
*1474 FILLER_41_217
*1475 FILLER_41_223
*1476 FILLER_41_225
*1477 FILLER_41_237
*1478 FILLER_41_249
*1479 FILLER_41_261
*1480 FILLER_41_27
*1481 FILLER_41_273
*1482 FILLER_41_279
*1483 FILLER_41_281
*1484 FILLER_41_293
*1485 FILLER_41_44
*1486 FILLER_41_52
*1487 FILLER_41_57
*1488 FILLER_41_6
*1489 FILLER_41_65
*1490 FILLER_41_69
*1491 FILLER_41_73
*1492 FILLER_41_87
*1493 FILLER_42_107
*1494 FILLER_42_121
*1495 FILLER_42_133
*1496 FILLER_42_139
*1497 FILLER_42_141
*1498 FILLER_42_153
*1499 FILLER_42_165
*1500 FILLER_42_177
*1501 FILLER_42_189
*1502 FILLER_42_195
*1503 FILLER_42_197
*1504 FILLER_42_20
*1505 FILLER_42_209
*1506 FILLER_42_221
*1507 FILLER_42_233
*1508 FILLER_42_245
*1509 FILLER_42_251
*1510 FILLER_42_253
*1511 FILLER_42_265
*1512 FILLER_42_277
*1513 FILLER_42_289
*1514 FILLER_42_29
*1515 FILLER_42_297
*1516 FILLER_42_36
*1517 FILLER_42_47
*1518 FILLER_42_55
*1519 FILLER_42_73
*1520 FILLER_42_80
*1521 FILLER_42_93
*1522 FILLER_43_108
*1523 FILLER_43_113
*1524 FILLER_43_125
*1525 FILLER_43_137
*1526 FILLER_43_149
*1527 FILLER_43_161
*1528 FILLER_43_167
*1529 FILLER_43_169
*1530 FILLER_43_18
*1531 FILLER_43_181
*1532 FILLER_43_193
*1533 FILLER_43_205
*1534 FILLER_43_217
*1535 FILLER_43_223
*1536 FILLER_43_225
*1537 FILLER_43_237
*1538 FILLER_43_249
*1539 FILLER_43_261
*1540 FILLER_43_273
*1541 FILLER_43_279
*1542 FILLER_43_281
*1543 FILLER_43_293
*1544 FILLER_43_3
*1545 FILLER_43_32
*1546 FILLER_43_48
*1547 FILLER_43_60
*1548 FILLER_43_68
*1549 FILLER_43_74
*1550 FILLER_43_88
*1551 FILLER_43_9
*1552 FILLER_43_96
*1553 FILLER_44_105
*1554 FILLER_44_117
*1555 FILLER_44_129
*1556 FILLER_44_137
*1557 FILLER_44_141
*1558 FILLER_44_153
*1559 FILLER_44_165
*1560 FILLER_44_177
*1561 FILLER_44_18
*1562 FILLER_44_189
*1563 FILLER_44_195
*1564 FILLER_44_197
*1565 FILLER_44_209
*1566 FILLER_44_221
*1567 FILLER_44_233
*1568 FILLER_44_245
*1569 FILLER_44_251
*1570 FILLER_44_253
*1571 FILLER_44_26
*1572 FILLER_44_265
*1573 FILLER_44_277
*1574 FILLER_44_289
*1575 FILLER_44_29
*1576 FILLER_44_297
*1577 FILLER_44_3
*1578 FILLER_44_51
*1579 FILLER_44_71
*1580 FILLER_44_79
*1581 FILLER_44_83
*1582 FILLER_44_91
*1583 FILLER_45_100
*1584 FILLER_45_108
*1585 FILLER_45_120
*1586 FILLER_45_132
*1587 FILLER_45_144
*1588 FILLER_45_156
*1589 FILLER_45_169
*1590 FILLER_45_181
*1591 FILLER_45_193
*1592 FILLER_45_20
*1593 FILLER_45_205
*1594 FILLER_45_217
*1595 FILLER_45_223
*1596 FILLER_45_225
*1597 FILLER_45_237
*1598 FILLER_45_249
*1599 FILLER_45_261
*1600 FILLER_45_273
*1601 FILLER_45_279
*1602 FILLER_45_281
*1603 FILLER_45_293
*1604 FILLER_45_40
*1605 FILLER_45_52
*1606 FILLER_45_60
*1607 FILLER_45_68
*1608 FILLER_45_80
*1609 FILLER_45_92
*1610 FILLER_46_110
*1611 FILLER_46_122
*1612 FILLER_46_134
*1613 FILLER_46_141
*1614 FILLER_46_153
*1615 FILLER_46_165
*1616 FILLER_46_177
*1617 FILLER_46_189
*1618 FILLER_46_195
*1619 FILLER_46_197
*1620 FILLER_46_209
*1621 FILLER_46_221
*1622 FILLER_46_233
*1623 FILLER_46_24
*1624 FILLER_46_245
*1625 FILLER_46_251
*1626 FILLER_46_253
*1627 FILLER_46_265
*1628 FILLER_46_277
*1629 FILLER_46_289
*1630 FILLER_46_29
*1631 FILLER_46_297
*1632 FILLER_46_3
*1633 FILLER_46_33
*1634 FILLER_46_50
*1635 FILLER_46_72
*1636 FILLER_46_76
*1637 FILLER_46_80
*1638 FILLER_46_85
*1639 FILLER_46_9
*1640 FILLER_46_92
*1641 FILLER_46_99
*1642 FILLER_47_106
*1643 FILLER_47_113
*1644 FILLER_47_125
*1645 FILLER_47_137
*1646 FILLER_47_149
*1647 FILLER_47_161
*1648 FILLER_47_167
*1649 FILLER_47_169
*1650 FILLER_47_181
*1651 FILLER_47_193
*1652 FILLER_47_205
*1653 FILLER_47_217
*1654 FILLER_47_223
*1655 FILLER_47_225
*1656 FILLER_47_237
*1657 FILLER_47_249
*1658 FILLER_47_261
*1659 FILLER_47_273
*1660 FILLER_47_279
*1661 FILLER_47_281
*1662 FILLER_47_293
*1663 FILLER_47_3
*1664 FILLER_47_32
*1665 FILLER_47_52
*1666 FILLER_47_57
*1667 FILLER_47_74
*1668 FILLER_47_8
*1669 FILLER_47_90
*1670 FILLER_47_98
*1671 FILLER_48_103
*1672 FILLER_48_115
*1673 FILLER_48_127
*1674 FILLER_48_139
*1675 FILLER_48_141
*1676 FILLER_48_153
*1677 FILLER_48_165
*1678 FILLER_48_177
*1679 FILLER_48_189
*1680 FILLER_48_195
*1681 FILLER_48_197
*1682 FILLER_48_20
*1683 FILLER_48_209
*1684 FILLER_48_221
*1685 FILLER_48_233
*1686 FILLER_48_245
*1687 FILLER_48_251