*SPEF "ieee 1481-1999"
*DESIGN "user_module_341423712597181012"
*DATE "11:11:11 Fri 11 11, 1111"
*VENDOR "OpenRCX"
*PROGRAM "Parallel Extraction"
*VERSION "1.0"
*DESIGN_FLOW "NAME_SCOPE LOCAL" "PIN_CAP NONE"
*DIVIDER /
*DELIMITER :
*BUS_DELIMITER []
*T_UNIT 1 NS
*C_UNIT 1 PF
*R_UNIT 1 OHM
*L_UNIT 1 HENRY

*NAME_MAP
*1 io_in[0]
*2 io_in[1]
*3 io_in[2]
*4 io_in[3]
*5 io_in[4]
*6 io_in[5]
*7 io_in[6]
*8 io_in[7]
*9 io_out[0]
*10 io_out[1]
*11 io_out[2]
*12 io_out[3]
*13 net10
*14 net11
*15 net12
*16 net13
*19 _00_
*20 _01_
*21 _02_
*22 _03_
*23 _04_
*24 _05_
*25 _06_
*26 _07_
*27 _08_
*28 _09_
*29 _10_
*30 _11_
*31 _12_
*32 _13_
*33 _14_
*34 _15_
*35 _16_
*36 _17_
*37 _18_
*38 _19_
*39 clknet_0_io_in[0]
*40 clknet_1_0__leaf_io_in[0]
*41 clknet_1_1__leaf_io_in[0]
*42 flipflop2\.d
*43 flipflop2\.q
*44 flipflop3\.d
*45 flipflop3\.q
*46 flipflop4\.d
*47 flipflop4\.q
*48 flipflop5\.d
*49 flipflop5\.q
*50 net1
*51 net2
*52 net3
*53 net4
*54 net5
*55 net6
*56 net7
*57 net8
*58 net9
*59 FILLER_0_109
*60 FILLER_0_113
*61 FILLER_0_125
*62 FILLER_0_137
*63 FILLER_0_141
*64 FILLER_0_15
*65 FILLER_0_153
*66 FILLER_0_165
*67 FILLER_0_169
*68 FILLER_0_181
*69 FILLER_0_193
*70 FILLER_0_197
*71 FILLER_0_209
*72 FILLER_0_221
*73 FILLER_0_225
*74 FILLER_0_237
*75 FILLER_0_249
*76 FILLER_0_253
*77 FILLER_0_265
*78 FILLER_0_27
*79 FILLER_0_277
*80 FILLER_0_281
*81 FILLER_0_29
*82 FILLER_0_293
*83 FILLER_0_3
*84 FILLER_0_41
*85 FILLER_0_53
*86 FILLER_0_57
*87 FILLER_0_69
*88 FILLER_0_81
*89 FILLER_0_85
*90 FILLER_0_97
*91 FILLER_10_109
*92 FILLER_10_121
*93 FILLER_10_133
*94 FILLER_10_139
*95 FILLER_10_141
*96 FILLER_10_15
*97 FILLER_10_153
*98 FILLER_10_165
*99 FILLER_10_177
*100 FILLER_10_189
*101 FILLER_10_195
*102 FILLER_10_197
*103 FILLER_10_209
*104 FILLER_10_221
*105 FILLER_10_233
*106 FILLER_10_245
*107 FILLER_10_251
*108 FILLER_10_253
*109 FILLER_10_265
*110 FILLER_10_27
*111 FILLER_10_277
*112 FILLER_10_289
*113 FILLER_10_29
*114 FILLER_10_297
*115 FILLER_10_3
*116 FILLER_10_41
*117 FILLER_10_53
*118 FILLER_10_65
*119 FILLER_10_77
*120 FILLER_10_83
*121 FILLER_10_85
*122 FILLER_10_97
*123 FILLER_11_105
*124 FILLER_11_111
*125 FILLER_11_113
*126 FILLER_11_125
*127 FILLER_11_137
*128 FILLER_11_149
*129 FILLER_11_15
*130 FILLER_11_161
*131 FILLER_11_167
*132 FILLER_11_169
*133 FILLER_11_181
*134 FILLER_11_193
*135 FILLER_11_205
*136 FILLER_11_217
*137 FILLER_11_223
*138 FILLER_11_225
*139 FILLER_11_237
*140 FILLER_11_249
*141 FILLER_11_261
*142 FILLER_11_27
*143 FILLER_11_273
*144 FILLER_11_279
*145 FILLER_11_281
*146 FILLER_11_293
*147 FILLER_11_3
*148 FILLER_11_39
*149 FILLER_11_51
*150 FILLER_11_55
*151 FILLER_11_57
*152 FILLER_11_69
*153 FILLER_11_81
*154 FILLER_11_93
*155 FILLER_12_109
*156 FILLER_12_121
*157 FILLER_12_133
*158 FILLER_12_139
*159 FILLER_12_141
*160 FILLER_12_153
*161 FILLER_12_165
*162 FILLER_12_177
*163 FILLER_12_18
*164 FILLER_12_189
*165 FILLER_12_195
*166 FILLER_12_197
*167 FILLER_12_209
*168 FILLER_12_221
*169 FILLER_12_233
*170 FILLER_12_245
*171 FILLER_12_251
*172 FILLER_12_253
*173 FILLER_12_26
*174 FILLER_12_265
*175 FILLER_12_277
*176 FILLER_12_289
*177 FILLER_12_29
*178 FILLER_12_297
*179 FILLER_12_41
*180 FILLER_12_53
*181 FILLER_12_6
*182 FILLER_12_65
*183 FILLER_12_77
*184 FILLER_12_83
*185 FILLER_12_85
*186 FILLER_12_97
*187 FILLER_13_105
*188 FILLER_13_111
*189 FILLER_13_113
*190 FILLER_13_125
*191 FILLER_13_137
*192 FILLER_13_149
*193 FILLER_13_15
*194 FILLER_13_161
*195 FILLER_13_167
*196 FILLER_13_169
*197 FILLER_13_181
*198 FILLER_13_193
*199 FILLER_13_205
*200 FILLER_13_217
*201 FILLER_13_223
*202 FILLER_13_225
*203 FILLER_13_237
*204 FILLER_13_249
*205 FILLER_13_261
*206 FILLER_13_27
*207 FILLER_13_273
*208 FILLER_13_279
*209 FILLER_13_281
*210 FILLER_13_293
*211 FILLER_13_3
*212 FILLER_13_39
*213 FILLER_13_51
*214 FILLER_13_55
*215 FILLER_13_57
*216 FILLER_13_69
*217 FILLER_13_81
*218 FILLER_13_93
*219 FILLER_14_109
*220 FILLER_14_121
*221 FILLER_14_133
*222 FILLER_14_139
*223 FILLER_14_141
*224 FILLER_14_15
*225 FILLER_14_153
*226 FILLER_14_165
*227 FILLER_14_177
*228 FILLER_14_189
*229 FILLER_14_195
*230 FILLER_14_197
*231 FILLER_14_209
*232 FILLER_14_221
*233 FILLER_14_233
*234 FILLER_14_245
*235 FILLER_14_251
*236 FILLER_14_253
*237 FILLER_14_265
*238 FILLER_14_27
*239 FILLER_14_277
*240 FILLER_14_289
*241 FILLER_14_29
*242 FILLER_14_297
*243 FILLER_14_3
*244 FILLER_14_41
*245 FILLER_14_53
*246 FILLER_14_65
*247 FILLER_14_77
*248 FILLER_14_83
*249 FILLER_14_85
*250 FILLER_14_97
*251 FILLER_15_105
*252 FILLER_15_111
*253 FILLER_15_113
*254 FILLER_15_125
*255 FILLER_15_137
*256 FILLER_15_149
*257 FILLER_15_161
*258 FILLER_15_167
*259 FILLER_15_169
*260 FILLER_15_181
*261 FILLER_15_193
*262 FILLER_15_205
*263 FILLER_15_21
*264 FILLER_15_217
*265 FILLER_15_223
*266 FILLER_15_225
*267 FILLER_15_237
*268 FILLER_15_249
*269 FILLER_15_261
*270 FILLER_15_273
*271 FILLER_15_279
*272 FILLER_15_281
*273 FILLER_15_293
*274 FILLER_15_33
*275 FILLER_15_45
*276 FILLER_15_53
*277 FILLER_15_57
*278 FILLER_15_69
*279 FILLER_15_81
*280 FILLER_15_9
*281 FILLER_15_93
*282 FILLER_16_10
*283 FILLER_16_109
*284 FILLER_16_121
*285 FILLER_16_133
*286 FILLER_16_139
*287 FILLER_16_141
*288 FILLER_16_153
*289 FILLER_16_165
*290 FILLER_16_17
*291 FILLER_16_177
*292 FILLER_16_189
*293 FILLER_16_195
*294 FILLER_16_197
*295 FILLER_16_209
*296 FILLER_16_221
*297 FILLER_16_233
*298 FILLER_16_245
*299 FILLER_16_25
*300 FILLER_16_251
*301 FILLER_16_253
*302 FILLER_16_265
*303 FILLER_16_277
*304 FILLER_16_289
*305 FILLER_16_29
*306 FILLER_16_297
*307 FILLER_16_41
*308 FILLER_16_53
*309 FILLER_16_65
*310 FILLER_16_77
*311 FILLER_16_83
*312 FILLER_16_85
*313 FILLER_16_97
*314 FILLER_17_105
*315 FILLER_17_111
*316 FILLER_17_113
*317 FILLER_17_125
*318 FILLER_17_137
*319 FILLER_17_149
*320 FILLER_17_161
*321 FILLER_17_167
*322 FILLER_17_169
*323 FILLER_17_181
*324 FILLER_17_193
*325 FILLER_17_205
*326 FILLER_17_217
*327 FILLER_17_223
*328 FILLER_17_225
*329 FILLER_17_237
*330 FILLER_17_249
*331 FILLER_17_261
*332 FILLER_17_27
*333 FILLER_17_273
*334 FILLER_17_279
*335 FILLER_17_281
*336 FILLER_17_293
*337 FILLER_17_3
*338 FILLER_17_39
*339 FILLER_17_51
*340 FILLER_17_55
*341 FILLER_17_57
*342 FILLER_17_69
*343 FILLER_17_81
*344 FILLER_17_93
*345 FILLER_18_109
*346 FILLER_18_121
*347 FILLER_18_133
*348 FILLER_18_139
*349 FILLER_18_141
*350 FILLER_18_153
*351 FILLER_18_165
*352 FILLER_18_17
*353 FILLER_18_177
*354 FILLER_18_189
*355 FILLER_18_195
*356 FILLER_18_197
*357 FILLER_18_209
*358 FILLER_18_221
*359 FILLER_18_233
*360 FILLER_18_24
*361 FILLER_18_245
*362 FILLER_18_251
*363 FILLER_18_253
*364 FILLER_18_265
*365 FILLER_18_277
*366 FILLER_18_289
*367 FILLER_18_29
*368 FILLER_18_297
*369 FILLER_18_3
*370 FILLER_18_41
*371 FILLER_18_53
*372 FILLER_18_65
*373 FILLER_18_77
*374 FILLER_18_83
*375 FILLER_18_85
*376 FILLER_18_9
*377 FILLER_18_97
*378 FILLER_19_105
*379 FILLER_19_111
*380 FILLER_19_113
*381 FILLER_19_125
*382 FILLER_19_137
*383 FILLER_19_149
*384 FILLER_19_161
*385 FILLER_19_167
*386 FILLER_19_169
*387 FILLER_19_181
*388 FILLER_19_19
*389 FILLER_19_193
*390 FILLER_19_205
*391 FILLER_19_217
*392 FILLER_19_223
*393 FILLER_19_225
*394 FILLER_19_237
*395 FILLER_19_249
*396 FILLER_19_261
*397 FILLER_19_273
*398 FILLER_19_279
*399 FILLER_19_281
*400 FILLER_19_293
*401 FILLER_19_30
*402 FILLER_19_37
*403 FILLER_19_49
*404 FILLER_19_55
*405 FILLER_19_57
*406 FILLER_19_69
*407 FILLER_19_81
*408 FILLER_19_93
*409 FILLER_1_105
*410 FILLER_1_111
*411 FILLER_1_113
*412 FILLER_1_125
*413 FILLER_1_137
*414 FILLER_1_149
*415 FILLER_1_15
*416 FILLER_1_161
*417 FILLER_1_167
*418 FILLER_1_169
*419 FILLER_1_181
*420 FILLER_1_193
*421 FILLER_1_205
*422 FILLER_1_217
*423 FILLER_1_223
*424 FILLER_1_225
*425 FILLER_1_237
*426 FILLER_1_249
*427 FILLER_1_261
*428 FILLER_1_27
*429 FILLER_1_273
*430 FILLER_1_279
*431 FILLER_1_281
*432 FILLER_1_293
*433 FILLER_1_3
*434 FILLER_1_39
*435 FILLER_1_51
*436 FILLER_1_55
*437 FILLER_1_57
*438 FILLER_1_69
*439 FILLER_1_81
*440 FILLER_1_93
*441 FILLER_20_109
*442 FILLER_20_121
*443 FILLER_20_133
*444 FILLER_20_139
*445 FILLER_20_141
*446 FILLER_20_153
*447 FILLER_20_165
*448 FILLER_20_177
*449 FILLER_20_189
*450 FILLER_20_19
*451 FILLER_20_195
*452 FILLER_20_197
*453 FILLER_20_209
*454 FILLER_20_221
*455 FILLER_20_233
*456 FILLER_20_245
*457 FILLER_20_251
*458 FILLER_20_253
*459 FILLER_20_265
*460 FILLER_20_27
*461 FILLER_20_277
*462 FILLER_20_289
*463 FILLER_20_297
*464 FILLER_20_33
*465 FILLER_20_45
*466 FILLER_20_57
*467 FILLER_20_69
*468 FILLER_20_81
*469 FILLER_20_85
*470 FILLER_20_97
*471 FILLER_21_105
*472 FILLER_21_111
*473 FILLER_21_113
*474 FILLER_21_125
*475 FILLER_21_137
*476 FILLER_21_149
*477 FILLER_21_161
*478 FILLER_21_167
*479 FILLER_21_169
*480 FILLER_21_181
*481 FILLER_21_19
*482 FILLER_21_193
*483 FILLER_21_205
*484 FILLER_21_217
*485 FILLER_21_223
*486 FILLER_21_225
*487 FILLER_21_237
*488 FILLER_21_249
*489 FILLER_21_261
*490 FILLER_21_273
*491 FILLER_21_279
*492 FILLER_21_281
*493 FILLER_21_293
*494 FILLER_21_30
*495 FILLER_21_40
*496 FILLER_21_52
*497 FILLER_21_57
*498 FILLER_21_69
*499 FILLER_21_81
*500 FILLER_21_93
*501 FILLER_22_109
*502 FILLER_22_121
*503 FILLER_22_133
*504 FILLER_22_139
*505 FILLER_22_141
*506 FILLER_22_153
*507 FILLER_22_165
*508 FILLER_22_177
*509 FILLER_22_189
*510 FILLER_22_195
*511 FILLER_22_197
*512 FILLER_22_209
*513 FILLER_22_221
*514 FILLER_22_233
*515 FILLER_22_24
*516 FILLER_22_245
*517 FILLER_22_251
*518 FILLER_22_253
*519 FILLER_22_265
*520 FILLER_22_277
*521 FILLER_22_289
*522 FILLER_22_297
*523 FILLER_22_3
*524 FILLER_22_36
*525 FILLER_22_45
*526 FILLER_22_52
*527 FILLER_22_64
*528 FILLER_22_76
*529 FILLER_22_85
*530 FILLER_22_97
*531 FILLER_23_105
*532 FILLER_23_111
*533 FILLER_23_113
*534 FILLER_23_125
*535 FILLER_23_137
*536 FILLER_23_149
*537 FILLER_23_161
*538 FILLER_23_167
*539 FILLER_23_169
*540 FILLER_23_181
*541 FILLER_23_19
*542 FILLER_23_193
*543 FILLER_23_205
*544 FILLER_23_217
*545 FILLER_23_223
*546 FILLER_23_225
*547 FILLER_23_237
*548 FILLER_23_249
*549 FILLER_23_261
*550 FILLER_23_273
*551 FILLER_23_279
*552 FILLER_23_281
*553 FILLER_23_293
*554 FILLER_23_32
*555 FILLER_23_43
*556 FILLER_23_50
*557 FILLER_23_57
*558 FILLER_23_69
*559 FILLER_23_81
*560 FILLER_23_93
*561 FILLER_24_109
*562 FILLER_24_121
*563 FILLER_24_133
*564 FILLER_24_139
*565 FILLER_24_14
*566 FILLER_24_141
*567 FILLER_24_153
*568 FILLER_24_165
*569 FILLER_24_177
*570 FILLER_24_189
*571 FILLER_24_195
*572 FILLER_24_197
*573 FILLER_24_209
*574 FILLER_24_221
*575 FILLER_24_233
*576 FILLER_24_24
*577 FILLER_24_245
*578 FILLER_24_251
*579 FILLER_24_253
*580 FILLER_24_265
*581 FILLER_24_277
*582 FILLER_24_289
*583 FILLER_24_297
*584 FILLER_24_3
*585 FILLER_24_36
*586 FILLER_24_44
*587 FILLER_24_56
*588 FILLER_24_68
*589 FILLER_24_80
*590 FILLER_24_85
*591 FILLER_24_97
*592 FILLER_25_105
*593 FILLER_25_111
*594 FILLER_25_113
*595 FILLER_25_125
*596 FILLER_25_13
*597 FILLER_25_137
*598 FILLER_25_149
*599 FILLER_25_161
*600 FILLER_25_167
*601 FILLER_25_169
*602 FILLER_25_181
*603 FILLER_25_193
*604 FILLER_25_205
*605 FILLER_25_217
*606 FILLER_25_223
*607 FILLER_25_225
*608 FILLER_25_237
*609 FILLER_25_249
*610 FILLER_25_25
*611 FILLER_25_261
*612 FILLER_25_273
*613 FILLER_25_279
*614 FILLER_25_281
*615 FILLER_25_293
*616 FILLER_25_33
*617 FILLER_25_40
*618 FILLER_25_52
*619 FILLER_25_57
*620 FILLER_25_69
*621 FILLER_25_81
*622 FILLER_25_93
*623 FILLER_26_109
*624 FILLER_26_12
*625 FILLER_26_121
*626 FILLER_26_133
*627 FILLER_26_139
*628 FILLER_26_141
*629 FILLER_26_153
*630 FILLER_26_165
*631 FILLER_26_177
*632 FILLER_26_189
*633 FILLER_26_195
*634 FILLER_26_197
*635 FILLER_26_209
*636 FILLER_26_21
*637 FILLER_26_221
*638 FILLER_26_233
*639 FILLER_26_245
*640 FILLER_26_251
*641 FILLER_26_253
*642 FILLER_26_265
*643 FILLER_26_27
*644 FILLER_26_277
*645 FILLER_26_289
*646 FILLER_26_297
*647 FILLER_26_32
*648 FILLER_26_44
*649 FILLER_26_56
*650 FILLER_26_68
*651 FILLER_26_80
*652 FILLER_26_85
*653 FILLER_26_97
*654 FILLER_27_105
*655 FILLER_27_111
*656 FILLER_27_113
*657 FILLER_27_125
*658 FILLER_27_137
*659 FILLER_27_149
*660 FILLER_27_161
*661 FILLER_27_167
*662 FILLER_27_169
*663 FILLER_27_181
*664 FILLER_27_193
*665 FILLER_27_205
*666 FILLER_27_217
*667 FILLER_27_223
*668 FILLER_27_225
*669 FILLER_27_237
*670 FILLER_27_249
*671 FILLER_27_261
*672 FILLER_27_27
*673 FILLER_27_273
*674 FILLER_27_279
*675 FILLER_27_281
*676 FILLER_27_293
*677 FILLER_27_3
*678 FILLER_27_39
*679 FILLER_27_51
*680 FILLER_27_55
*681 FILLER_27_57
*682 FILLER_27_69
*683 FILLER_27_81
*684 FILLER_27_93
*685 FILLER_28_10
*686 FILLER_28_109
*687 FILLER_28_121
*688 FILLER_28_133
*689 FILLER_28_139
*690 FILLER_28_141
*691 FILLER_28_153
*692 FILLER_28_165
*693 FILLER_28_177
*694 FILLER_28_18
*695 FILLER_28_189
*696 FILLER_28_195
*697 FILLER_28_197
*698 FILLER_28_209
*699 FILLER_28_221
*700 FILLER_28_233
*701 FILLER_28_245
*702 FILLER_28_251
*703 FILLER_28_253
*704 FILLER_28_26
*705 FILLER_28_265
*706 FILLER_28_277
*707 FILLER_28_289
*708 FILLER_28_297
*709 FILLER_28_32
*710 FILLER_28_44
*711 FILLER_28_56
*712 FILLER_28_68
*713 FILLER_28_80
*714 FILLER_28_85
*715 FILLER_28_97
*716 FILLER_29_105
*717 FILLER_29_111
*718 FILLER_29_113
*719 FILLER_29_125
*720 FILLER_29_137
*721 FILLER_29_149
*722 FILLER_29_15
*723 FILLER_29_161
*724 FILLER_29_167
*725 FILLER_29_169
*726 FILLER_29_181
*727 FILLER_29_193
*728 FILLER_29_20
*729 FILLER_29_205
*730 FILLER_29_217
*731 FILLER_29_223
*732 FILLER_29_225
*733 FILLER_29_237
*734 FILLER_29_249
*735 FILLER_29_261
*736 FILLER_29_273
*737 FILLER_29_279
*738 FILLER_29_281
*739 FILLER_29_293
*740 FILLER_29_3
*741 FILLER_29_32
*742 FILLER_29_44
*743 FILLER_29_57
*744 FILLER_29_69
*745 FILLER_29_81
*746 FILLER_29_93
*747 FILLER_2_109
*748 FILLER_2_121
*749 FILLER_2_133
*750 FILLER_2_139
*751 FILLER_2_141
*752 FILLER_2_15
*753 FILLER_2_153
*754 FILLER_2_165
*755 FILLER_2_177
*756 FILLER_2_189
*757 FILLER_2_195
*758 FILLER_2_197
*759 FILLER_2_209
*760 FILLER_2_221
*761 FILLER_2_233
*762 FILLER_2_245
*763 FILLER_2_251
*764 FILLER_2_253
*765 FILLER_2_265
*766 FILLER_2_27
*767 FILLER_2_277
*768 FILLER_2_289
*769 FILLER_2_29
*770 FILLER_2_297
*771 FILLER_2_3
*772 FILLER_2_41
*773 FILLER_2_53
*774 FILLER_2_65
*775 FILLER_2_77
*776 FILLER_2_83
*777 FILLER_2_85
*778 FILLER_2_97
*779 FILLER_30_109
*780 FILLER_30_121
*781 FILLER_30_133
*782 FILLER_30_139
*783 FILLER_30_141
*784 FILLER_30_153
*785 FILLER_30_165
*786 FILLER_30_177
*787 FILLER_30_189
*788 FILLER_30_19
*789 FILLER_30_195
*790 FILLER_30_197
*791 FILLER_30_209
*792 FILLER_30_221
*793 FILLER_30_233
*794 FILLER_30_245
*795 FILLER_30_251
*796 FILLER_30_253
*797 FILLER_30_265
*798 FILLER_30_27
*799 FILLER_30_277
*800 FILLER_30_289
*801 FILLER_30_29
*802 FILLER_30_297
*803 FILLER_30_41
*804 FILLER_30_53
*805 FILLER_30_65
*806 FILLER_30_7
*807 FILLER_30_77
*808 FILLER_30_83
*809 FILLER_30_85
*810 FILLER_30_97
*811 FILLER_31_105
*812 FILLER_31_111
*813 FILLER_31_113
*814 FILLER_31_125
*815 FILLER_31_137
*816 FILLER_31_149
*817 FILLER_31_15
*818 FILLER_31_161
*819 FILLER_31_167
*820 FILLER_31_169
*821 FILLER_31_181
*822 FILLER_31_193
*823 FILLER_31_205
*824 FILLER_31_217
*825 FILLER_31_223
*826 FILLER_31_225
*827 FILLER_31_237
*828 FILLER_31_249
*829 FILLER_31_261
*830 FILLER_31_27
*831 FILLER_31_273
*832 FILLER_31_279
*833 FILLER_31_281
*834 FILLER_31_293
*835 FILLER_31_3
*836 FILLER_31_39
*837 FILLER_31_51
*838 FILLER_31_55
*839 FILLER_31_57
*840 FILLER_31_69
*841 FILLER_31_81
*842 FILLER_31_93
*843 FILLER_32_109
*844 FILLER_32_121
*845 FILLER_32_133
*846 FILLER_32_139
*847 FILLER_32_141
*848 FILLER_32_153
*849 FILLER_32_165
*850 FILLER_32_177
*851 FILLER_32_189
*852 FILLER_32_19
*853 FILLER_32_195
*854 FILLER_32_197
*855 FILLER_32_209
*856 FILLER_32_221
*857 FILLER_32_233
*858 FILLER_32_245
*859 FILLER_32_251
*860 FILLER_32_253
*861 FILLER_32_265
*862 FILLER_32_27
*863 FILLER_32_277
*864 FILLER_32_289
*865 FILLER_32_29
*866 FILLER_32_297
*867 FILLER_32_41
*868 FILLER_32_53
*869 FILLER_32_65
*870 FILLER_32_7
*871 FILLER_32_77
*872 FILLER_32_83
*873 FILLER_32_85
*874 FILLER_32_97
*875 FILLER_33_105
*876 FILLER_33_111
*877 FILLER_33_113
*878 FILLER_33_125
*879 FILLER_33_137
*880 FILLER_33_149
*881 FILLER_33_15
*882 FILLER_33_161
*883 FILLER_33_167
*884 FILLER_33_169
*885 FILLER_33_181
*886 FILLER_33_193
*887 FILLER_33_205
*888 FILLER_33_217
*889 FILLER_33_223
*890 FILLER_33_225
*891 FILLER_33_237
*892 FILLER_33_249
*893 FILLER_33_261
*894 FILLER_33_27
*895 FILLER_33_273
*896 FILLER_33_279
*897 FILLER_33_281
*898 FILLER_33_293
*899 FILLER_33_3
*900 FILLER_33_39
*901 FILLER_33_51
*902 FILLER_33_55
*903 FILLER_33_57
*904 FILLER_33_69
*905 FILLER_33_81
*906 FILLER_33_93
*907 FILLER_34_109
*908 FILLER_34_121
*909 FILLER_34_133
*910 FILLER_34_139
*911 FILLER_34_141
*912 FILLER_34_153
*913 FILLER_34_165
*914 FILLER_34_177
*915 FILLER_34_189
*916 FILLER_34_19
*917 FILLER_34_195
*918 FILLER_34_197
*919 FILLER_34_209
*920 FILLER_34_221
*921 FILLER_34_233
*922 FILLER_34_245
*923 FILLER_34_251
*924 FILLER_34_253
*925 FILLER_34_265
*926 FILLER_34_27
*927 FILLER_34_277
*928 FILLER_34_289
*929 FILLER_34_29
*930 FILLER_34_297
*931 FILLER_34_41
*932 FILLER_34_53
*933 FILLER_34_65
*934 FILLER_34_7
*935 FILLER_34_77
*936 FILLER_34_83
*937 FILLER_34_85
*938 FILLER_34_97
*939 FILLER_35_105
*940 FILLER_35_111
*941 FILLER_35_113
*942 FILLER_35_125
*943 FILLER_35_137
*944 FILLER_35_149
*945 FILLER_35_15
*946 FILLER_35_161
*947 FILLER_35_167
*948 FILLER_35_169
*949 FILLER_35_181
*950 FILLER_35_193
*951 FILLER_35_205
*952 FILLER_35_217
*953 FILLER_35_223
*954 FILLER_35_225
*955 FILLER_35_237
*956 FILLER_35_249
*957 FILLER_35_261
*958 FILLER_35_27
*959 FILLER_35_273
*960 FILLER_35_279
*961 FILLER_35_281
*962 FILLER_35_293
*963 FILLER_35_3
*964 FILLER_35_39
*965 FILLER_35_51
*966 FILLER_35_55
*967 FILLER_35_57
*968 FILLER_35_69
*969 FILLER_35_81
*970 FILLER_35_93
*971 FILLER_36_109
*972 FILLER_36_121
*973 FILLER_36_133
*974 FILLER_36_139
*975 FILLER_36_141
*976 FILLER_36_15
*977 FILLER_36_153
*978 FILLER_36_165
*979 FILLER_36_177
*980 FILLER_36_189
*981 FILLER_36_195
*982 FILLER_36_197
*983 FILLER_36_209
*984 FILLER_36_221
*985 FILLER_36_233
*986 FILLER_36_245
*987 FILLER_36_251
*988 FILLER_36_253
*989 FILLER_36_265
*990 FILLER_36_27
*991 FILLER_36_277
*992 FILLER_36_289
*993 FILLER_36_29
*994 FILLER_36_297
*995 FILLER_36_3
*996 FILLER_36_41
*997 FILLER_36_53
*998 FILLER_36_65
*999 FILLER_36_77
*1000 FILLER_36_83
*1001 FILLER_36_85
*1002 FILLER_36_97
*1003 FILLER_37_105
*1004 FILLER_37_111
*1005 FILLER_37_113
*1006 FILLER_37_125
*1007 FILLER_37_137
*1008 FILLER_37_149
*1009 FILLER_37_15
*1010 FILLER_37_161
*1011 FILLER_37_167
*1012 FILLER_37_169
*1013 FILLER_37_181
*1014 FILLER_37_193
*1015 FILLER_37_205
*1016 FILLER_37_217
*1017 FILLER_37_223
*1018 FILLER_37_225
*1019 FILLER_37_237
*1020 FILLER_37_249
*1021 FILLER_37_261
*1022 FILLER_37_27
*1023 FILLER_37_273
*1024 FILLER_37_279
*1025 FILLER_37_281
*1026 FILLER_37_293
*1027 FILLER_37_3
*1028 FILLER_37_39
*1029 FILLER_37_51
*1030 FILLER_37_55
*1031 FILLER_37_57
*1032 FILLER_37_69
*1033 FILLER_37_81
*1034 FILLER_37_93
*1035 FILLER_38_109
*1036 FILLER_38_121
*1037 FILLER_38_133
*1038 FILLER_38_139
*1039 FILLER_38_141
*1040 FILLER_38_15
*1041 FILLER_38_153
*1042 FILLER_38_165
*1043 FILLER_38_177
*1044 FILLER_38_189
*1045 FILLER_38_195
*1046 FILLER_38_197
*1047 FILLER_38_209
*1048 FILLER_38_221
*1049 FILLER_38_233
*1050 FILLER_38_245
*1051 FILLER_38_251
*1052 FILLER_38_253
*1053 FILLER_38_265
*1054 FILLER_38_27
*1055 FILLER_38_277
*1056 FILLER_38_289
*1057 FILLER_38_29
*1058 FILLER_38_297
*1059 FILLER_38_3
*1060 FILLER_38_41
*1061 FILLER_38_53
*1062 FILLER_38_65
*1063 FILLER_38_77
*1064 FILLER_38_83
*1065 FILLER_38_85
*1066 FILLER_38_97
*1067 FILLER_39_105
*1068 FILLER_39_111
*1069 FILLER_39_113
*1070 FILLER_39_125
*1071 FILLER_39_137
*1072 FILLER_39_149
*1073 FILLER_39_15
*1074 FILLER_39_161
*1075 FILLER_39_167
*1076 FILLER_39_169
*1077 FILLER_39_181
*1078 FILLER_39_193
*1079 FILLER_39_205
*1080 FILLER_39_217
*1081 FILLER_39_223
*1082 FILLER_39_225
*1083 FILLER_39_237
*1084 FILLER_39_249
*1085 FILLER_39_261
*1086 FILLER_39_27
*1087 FILLER_39_273
*1088 FILLER_39_279
*1089 FILLER_39_281
*1090 FILLER_39_293
*1091 FILLER_39_3
*1092 FILLER_39_39
*1093 FILLER_39_51
*1094 FILLER_39_55
*1095 FILLER_39_57
*1096 FILLER_39_69
*1097 FILLER_39_81
*1098 FILLER_39_93
*1099 FILLER_3_105
*1100 FILLER_3_111
*1101 FILLER_3_113
*1102 FILLER_3_125
*1103 FILLER_3_137
*1104 FILLER_3_149
*1105 FILLER_3_15
*1106 FILLER_3_161
*1107 FILLER_3_167
*1108 FILLER_3_169
*1109 FILLER_3_181
*1110 FILLER_3_193
*1111 FILLER_3_205
*1112 FILLER_3_217
*1113 FILLER_3_223
*1114 FILLER_3_225
*1115 FILLER_3_237
*1116 FILLER_3_249
*1117 FILLER_3_261
*1118 FILLER_3_27
*1119 FILLER_3_273
*1120 FILLER_3_279
*1121 FILLER_3_281
*1122 FILLER_3_293
*1123 FILLER_3_3
*1124 FILLER_3_39
*1125 FILLER_3_51
*1126 FILLER_3_55
*1127 FILLER_3_57
*1128 FILLER_3_69
*1129 FILLER_3_81
*1130 FILLER_3_93
*1131 FILLER_40_109
*1132 FILLER_40_121
*1133 FILLER_40_133
*1134 FILLER_40_139
*1135 FILLER_40_141
*1136 FILLER_40_15
*1137 FILLER_40_153
*1138 FILLER_40_165
*1139 FILLER_40_177
*1140 FILLER_40_189
*1141 FILLER_40_195
*1142 FILLER_40_197
*1143 FILLER_40_209
*1144 FILLER_40_221
*1145 FILLER_40_233
*1146 FILLER_40_245
*1147 FILLER_40_251
*1148 FILLER_40_253
*1149 FILLER_40_265
*1150 FILLER_40_27
*1151 FILLER_40_277
*1152 FILLER_40_289
*1153 FILLER_40_29
*1154 FILLER_40_297
*1155 FILLER_40_3
*1156 FILLER_40_41
*1157 FILLER_40_53
*1158 FILLER_40_65
*1159 FILLER_40_77
*1160 FILLER_40_83
*1161 FILLER_40_85
*1162 FILLER_40_97
*1163 FILLER_41_105
*1164 FILLER_41_111
*1165 FILLER_41_113
*1166 FILLER_41_125
*1167 FILLER_41_137
*1168 FILLER_41_149
*1169 FILLER_41_15
*1170 FILLER_41_161
*1171 FILLER_41_167
*1172 FILLER_41_169
*1173 FILLER_41_181
*1174 FILLER_41_193
*1175 FILLER_41_205
*1176 FILLER_41_217
*1177 FILLER_41_223
*1178 FILLER_41_225
*1179 FILLER_41_237
*1180 FILLER_41_249
*1181 FILLER_41_261
*1182 FILLER_41_27
*1183 FILLER_41_273
*1184 FILLER_41_279
*1185 FILLER_41_281
*1186 FILLER_41_293
*1187 FILLER_41_3
*1188 FILLER_41_39
*1189 FILLER_41_51
*1190 FILLER_41_55
*1191 FILLER_41_57
*1192 FILLER_41_69
*1193 FILLER_41_81
*1194 FILLER_41_93
*1195 FILLER_42_109
*1196 FILLER_42_121
*1197 FILLER_42_133
*1198 FILLER_42_139
*1199 FILLER_42_141
*1200 FILLER_42_15
*1201 FILLER_42_153
*1202 FILLER_42_165
*1203 FILLER_42_177
*1204 FILLER_42_189
*1205 FILLER_42_195
*1206 FILLER_42_197
*1207 FILLER_42_209
*1208 FILLER_42_221
*1209 FILLER_42_233
*1210 FILLER_42_245
*1211 FILLER_42_251
*1212 FILLER_42_253
*1213 FILLER_42_265
*1214 FILLER_42_27
*1215 FILLER_42_277
*1216 FILLER_42_289
*1217 FILLER_42_29
*1218 FILLER_42_297
*1219 FILLER_42_3
*1220 FILLER_42_41
*1221 FILLER_42_53
*1222 FILLER_42_65
*1223 FILLER_42_77
*1224 FILLER_42_83
*1225 FILLER_42_85
*1226 FILLER_42_97
*1227 FILLER_43_105
*1228 FILLER_43_111
*1229 FILLER_43_113
*1230 FILLER_43_125
*1231 FILLER_43_137
*1232 FILLER_43_149
*1233 FILLER_43_15
*1234 FILLER_43_161
*1235 FILLER_43_167
*1236 FILLER_43_169
*1237 FILLER_43_181
*1238 FILLER_43_193
*1239 FILLER_43_205
*1240 FILLER_43_217
*1241 FILLER_43_223
*1242 FILLER_43_225
*1243 FILLER_43_237
*1244 FILLER_43_249
*1245 FILLER_43_261
*1246 FILLER_43_27
*1247 FILLER_43_273
*1248 FILLER_43_279
*1249 FILLER_43_281
*1250 FILLER_43_293
*1251 FILLER_43_3
*1252 FILLER_43_39
*1253 FILLER_43_51
*1254 FILLER_43_55
*1255 FILLER_43_57
*1256 FILLER_43_69
*1257 FILLER_43_81
*1258 FILLER_43_93
*1259 FILLER_44_109
*1260 FILLER_44_121
*1261 FILLER_44_133
*1262 FILLER_44_139
*1263 FILLER_44_141
*1264 FILLER_44_15
*1265 FILLER_44_153
*1266 FILLER_44_165
*1267 FILLER_44_177
*1268 FILLER_44_189
*1269 FILLER_44_195
*1270 FILLER_44_197
*1271 FILLER_44_209
*1272 FILLER_44_221
*1273 FILLER_44_233
*1274 FILLER_44_245
*1275 FILLER_44_251
*1276 FILLER_44_253
*1277 FILLER_44_265
*1278 FILLER_44_27
*1279 FILLER_44_277
*1280 FILLER_44_289
*1281 FILLER_44_29
*1282 FILLER_44_297
*1283 FILLER_44_3
*1284 FILLER_44_41
*1285 FILLER_44_53
*1286 FILLER_44_65
*1287 FILLER_44_77
*1288 FILLER_44_83
*1289 FILLER_44_85
*1290 FILLER_44_97
*1291 FILLER_45_105
*1292 FILLER_45_111
*1293 FILLER_45_113
*1294 FILLER_45_125
*1295 FILLER_45_137
*1296 FILLER_45_149
*1297 FILLER_45_15
*1298 FILLER_45_161
*1299 FILLER_45_167
*1300 FILLER_45_169
*1301 FILLER_45_181
*1302 FILLER_45_193
*1303 FILLER_45_205
*1304 FILLER_45_217
*1305 FILLER_45_223
*1306 FILLER_45_225
*1307 FILLER_45_237
*1308 FILLER_45_249
*1309 FILLER_45_261
*1310 FILLER_45_27
*1311 FILLER_45_273
*1312 FILLER_45_279
*1313 FILLER_45_281
*1314 FILLER_45_293
*1315 FILLER_45_3
*1316 FILLER_45_39
*1317 FILLER_45_51
*1318 FILLER_45_55
*1319 FILLER_45_57
*1320 FILLER_45_69
*1321 FILLER_45_81
*1322 FILLER_45_93
*1323 FILLER_46_109
*1324 FILLER_46_121
*1325 FILLER_46_133
*1326 FILLER_46_139
*1327 FILLER_46_141
*1328 FILLER_46_153
*1329 FILLER_46_165
*1330 FILLER_46_177
*1331 FILLER_46_18
*1332 FILLER_46_189
*1333 FILLER_46_195
*1334 FILLER_46_197
*1335 FILLER_46_209
*1336 FILLER_46_221
*1337 FILLER_46_233
*1338 FILLER_46_245
*1339 FILLER_46_251
*1340 FILLER_46_253
*1341 FILLER_46_26
*1342 FILLER_46_265
*1343 FILLER_46_277
*1344 FILLER_46_289
*1345 FILLER_46_29
*1346 FILLER_46_297
*1347 FILLER_46_41
*1348 FILLER_46_53
*1349 FILLER_46_6
*1350 FILLER_46_65
*1351 FILLER_46_77
*1352 FILLER_46_83
*1353 FILLER_46_85
*1354 FILLER_46_97
*1355 FILLER_47_105
*1356 FILLER_47_111
*1357 FILLER_47_113
*1358 FILLER_47_125
*1359 FILLER_47_137
*1360 FILLER_47_149
*1361 FILLER_47_15
*1362 FILLER_47_161
*1363 FILLER_47_167
*1364 FILLER_47_169
*1365 FILLER_47_181
*1366 FILLER_47_193
*1367 FILLER_47_205
*1368 FILLER_47_217
*1369 FILLER_47_223
*1370 FILLER_47_225
*1371 FILLER_47_237
*1372 FILLER_47_249
*1373 FILLER_47_261
*1374 FILLER_47_27
*1375 FILLER_47_273
*1376 FILLER_47_279
*1377 FILLER_47_281
*1378 FILLER_47_293
*1379 FILLER_47_3
*1380 FILLER_47_39
*1381 FILLER_47_51
*1382 FILLER_47_55
*1383 FILLER_47_57
*1384 FILLER_47_69
*1385 FILLER_47_81
*1386 FILLER_47_93
*1387 FILLER_48_109
*1388 FILLER_48_121
*1389 FILLER_48_133
*1390 FILLER_48_139
*1391 FILLER_48_141
*1392 FILLER_48_15
*1393 FILLER_48_153
*1394 FILLER_48_165
*1395 FILLER_48_177
*1396 FILLER_48_189
*1397 FILLER_48_195
*1398 FILLER_48_197
*1399 FILLER_48_209
*1400 FILLER_48_221
*1401 FILLER_48_233
*1402 FILLER_48_245
*1403 FILLER_48_251
*1404 FILLER_48_253
*1405 FILLER_48_265
*1406 FILLER_48_27
*1407 FILLER_48_277
*1408 FILLER_48_289
*1409 FILLER_48_29
*1410 FILLER_48_297
*1411 FILLER_48_3
*1412 FILLER_48_41
*1413 FILLER_48_53
*1414 FILLER_48_65
*1415 FILLER_48_77
*1416 FILLER_48_83
*1417 FILLER_48_85
*1418 FILLER_48_97
*1419 FILLER_49_105
*1420 FILLER_49_111
*1421 FILLER_49_113
*1422 FILLER_49_125
*1423 FILLER_49_137
*1424 FILLER_49_149
*1425 FILLER_49_15
*1426 FILLER_49_161
*1427 FILLER_49_167
*1428 FILLER_49_169
*1429 FILLER_49_181
*1430 FILLER_49_193
*1431 FILLER_49_205
*1432 FILLER_49_217
*1433 FILLER_49_223
*1434 FILLER_49_225
*1435 FILLER_49_237
*1436 FILLER_49_249
*1437 FILLER_49_261
*1438 FILLER_49_27
*1439 FILLER_49_273
*1440 FILLER_49_279
*1441 FILLER_49_281
*1442 FILLER_49_293
*1443 FILLER_49_3
*1444 FILLER_49_39
*1445 FILLER_49_51
*1446 FILLER_49_55
*1447 FILLER_49_57
*1448 FILLER_49_69
*1449 FILLER_49_81
*1450 FILLER_49_93
*1451 FILLER_4_109
*1452 FILLER_4_121
*1453 FILLER_4_133
*1454 FILLER_4_139
*1455 FILLER_4_141
*1456 FILLER_4_15
*1457 FILLER_4_153
*1458 FILLER_4_165
*1459 FILLER_4_177
*1460 FILLER_4_189
*1461 FILLER_4_195
*1462 FILLER_4_197
*1463 FILLER_4_209
*1464 FILLER_4_221
*1465 FILLER_4_233
*1466 FILLER_4_245
*1467 FILLER_4_251
*1468 FILLER_4_253
*1469 FILLER_4_265
*1470 FILLER_4_27
*1471 FILLER_4_277
*1472 FILLER_4_289
*1473 FILLER_4_29
*1474 FILLER_4_297
*1475 FILLER_4_3
*1476 FILLER_4_41
*1477 FILLER_4_53
*1478 FILLER_4_65
*1479 FILLER_4_77
*1480 FILLER_4_83
*1481 FILLER_4_85
*1482 FILLER_4_97
*1483 FILLER_50_109
*1484 FILLER_50_121
*1485 FILLER_50_133
*1486 FILLER_50_139
*1487 FILLER_50_141
*1488 FILLER_50_153
*1489 FILLER_50_165
*1490 FILLER_50_177
*1491 FILLER_50_18
*1492 FILLER_50_189
*1493 FILLER_50_195
*1494 FILLER_50_197
*1495 FILLER_50_209
*1496 FILLER_50_221
*1497 FILLER_50_233
*1498 FILLER_50_245
*1499 FILLER_50_251
*1500 FILLER_50_253
*1501 FILLER_50_26
*1502 FILLER_50_265
*1503 FILLER_50_277
*1504 FILLER_50_289
*1505 FILLER_50_29
*1506 FILLER_50_297
*1507 FILLER_50_41
*1508 FILLER_50_53
*1509 FILLER_50_6
*1510 FILLER_50_65
*1511 FILLER_50_77
*1512 FILLER_50_83
*1513 FILLER_50_85
*1514 FILLER_50_97
*1515 FILLER_51_105
*1516 FILLER_51_111
*1517 FILLER_51_113
*1518 FILLER_51_125
*1519 FILLER_51_137
*1520 FILLER_51_149
*1521 FILLER_51_15
*1522 FILLER_51_161
*1523 FILLER_51_167
*1524 FILLER_51_169
*1525 FILLER_51_181
*1526 FILLER_51_193
*1527 FILLER_51_205
*1528 FILLER_51_217
*1529 FILLER_51_223
*1530 FILLER_51_225
*1531 FILLER_51_237
*1532 FILLER_51_249
*1533 FILLER_51_261
*1534 FILLER_51_27
*1535 FILLER_51_273
*1536 FILLER_51_279
*1537 FILLER_51_281
*1538 FILLER_51_293
*1539 FILLER_51_3
*1540 FILLER_51_39
*1541 FILLER_51_51
*1542 FILLER_51_55
*1543 FILLER_51_57
*1544 FILLER_51_69
*1545 FILLER_51_81
*1546 FILLER_51_93
*1547 FILLER_52_109
*1548 FILLER_52_121
*1549 FILLER_52_133
*1550 FILLER_52_139
*1551 FILLER_52_141
*1552 FILLER_52_15
*1553 FILLER_52_153
*1554 FILLER_52_165
*1555 FILLER_52_177
*1556 FILLER_52_189
*1557 FILLER_52_195
*1558 FILLER_52_197
*1559 FILLER_52_209
*1560 FILLER_52_221
*1561 FILLER_52_233
*1562 FILLER_52_245
*1563 FILLER_52_251
*1564 FILLER_52_253
*1565 FILLER_52_265
*1566 FILLER_52_27
*1567 FILLER_52_277
*1568 FILLER_52_289
*1569 FILLER_52_29
*1570 FILLER_52_297
*1571 FILLER_52_3
*1572 FILLER_52_41
*1573 FILLER_52_53
*1574 FILLER_52_65
*1575 FILLER_52_77
*1576 FILLER_52_83
*1577 FILLER_52_85
*1578 FILLER_52_97
*1579 FILLER_53_105
*1580 FILLER_53_111
*1581 FILLER_53_113
*1582 FILLER_53_125
*1583 FILLER_53_137
*1584 FILLER_53_149
*1585 FILLER_53_15
*1586 FILLER_53_161
*1587 FILLER_53_167
*1588 FILLER_53_169
*1589 FILLER_53_181
*1590 FILLER_53_193
*1591 FILLER_53_205
*1592 FILLER_53_217