*SPEF "ieee 1481-1999"
*DESIGN "user_module_348381622440034899"
*DATE "11:11:11 Fri 11 11, 1111"
*VENDOR "OpenRCX"
*PROGRAM "Parallel Extraction"
*VERSION "1.0"
*DESIGN_FLOW "NAME_SCOPE LOCAL" "PIN_CAP NONE"
*DIVIDER /
*DELIMITER :
*BUS_DELIMITER []
*T_UNIT 1 NS
*C_UNIT 1 PF
*R_UNIT 1 OHM
*L_UNIT 1 HENRY

*NAME_MAP
*1 io_in[0]
*2 io_in[1]
*3 io_in[2]
*4 io_in[3]
*5 io_in[4]
*6 io_in[5]
*7 io_in[6]
*8 io_in[7]
*9 io_out[0]
*10 io_out[1]
*11 io_out[2]
*12 io_out[3]
*13 io_out[4]
*14 io_out[5]
*15 io_out[6]
*16 net9
*19 _000_
*20 _001_
*21 _002_
*22 _003_
*23 _004_
*24 _005_
*25 _006_
*26 _007_
*27 _008_
*28 _009_
*29 _010_
*30 _011_
*31 _012_
*32 _013_
*33 _014_
*34 _015_
*35 _016_
*36 _017_
*37 _018_
*38 _019_
*39 _020_
*40 _021_
*41 _022_
*42 _023_
*43 _024_
*44 _025_
*45 _026_
*46 _027_
*47 _028_
*48 _029_
*49 _030_
*50 _031_
*51 _032_
*52 _033_
*53 _034_
*54 _035_
*55 _036_
*56 _037_
*57 _038_
*58 _039_
*59 _040_
*60 _041_
*61 _042_
*62 _043_
*63 _044_
*64 _045_
*65 _046_
*66 _047_
*67 _048_
*68 _049_
*69 _050_
*70 clknet_0_flipflop10\.clk
*71 clknet_0_io_in[0]
*72 clknet_1_0__leaf_flipflop10\.clk
*73 clknet_1_0__leaf_io_in[0]
*74 clknet_1_1__leaf_flipflop10\.clk
*75 clknet_1_1__leaf_io_in[0]
*76 flipflop10\.clk
*77 flipflop10\.d
*78 flipflop10\.q
*79 flipflop11\.q
*80 flipflop12\.d
*81 flipflop12\.q
*82 flipflop13\.d
*83 flipflop13\.q
*84 flipflop14\.q
*85 flipflop15\.d
*86 flipflop15\.q
*87 flipflop16\.d
*88 flipflop16\.q
*89 flipflop17\.q
*90 flipflop18\.d
*91 flipflop18\.q
*92 flipflop19\.d
*93 flipflop19\.q
*94 flipflop2\.d
*95 flipflop2\.q
*96 flipflop20\.q
*97 flipflop21\.d
*98 flipflop21\.q
*99 flipflop22\.d
*100 flipflop22\.q
*101 flipflop23\.q
*102 flipflop24\.d
*103 flipflop24\.q
*104 flipflop25\.d
*105 flipflop25\.q
*106 flipflop26\.q
*107 flipflop27\.d
*108 flipflop27\.q
*109 flipflop28\.d
*110 flipflop28\.q
*111 flipflop29\.q
*112 flipflop3\.d
*113 flipflop3\.q
*114 flipflop30\.d
*115 flipflop4\.d
*116 flipflop4\.q
*117 flipflop5\.d
*118 flipflop5\.q
*119 flipflop6\.d
*120 flipflop6\.q
*121 flipflop7\.d
*122 flipflop7\.q
*123 flipflop8\.q
*124 flipflop9\.d
*125 flipflop9\.q
*126 gate13\.out
*127 gate15\.out
*128 gate17\.out
*129 gate19\.out
*130 gate21\.out
*131 gate23\.out
*132 gate25\.out
*133 net1
*134 net10
*135 net2
*136 net3
*137 net4
*138 net5
*139 net6
*140 net7
*141 net8
*142 ANTENNA_0
*143 ANTENNA_1
*144 FILLER_0_109
*145 FILLER_0_113
*146 FILLER_0_125
*147 FILLER_0_137
*148 FILLER_0_141
*149 FILLER_0_153
*150 FILLER_0_165
*151 FILLER_0_169
*152 FILLER_0_181
*153 FILLER_0_193
*154 FILLER_0_197
*155 FILLER_0_209
*156 FILLER_0_221
*157 FILLER_0_225
*158 FILLER_0_237
*159 FILLER_0_24
*160 FILLER_0_249
*161 FILLER_0_253
*162 FILLER_0_265
*163 FILLER_0_277
*164 FILLER_0_281
*165 FILLER_0_293
*166 FILLER_0_3
*167 FILLER_0_45
*168 FILLER_0_53
*169 FILLER_0_73
*170 FILLER_0_81
*171 FILLER_0_85
*172 FILLER_0_97
*173 FILLER_10_109
*174 FILLER_10_121
*175 FILLER_10_133
*176 FILLER_10_139
*177 FILLER_10_141
*178 FILLER_10_153
*179 FILLER_10_165
*180 FILLER_10_177
*181 FILLER_10_189
*182 FILLER_10_195
*183 FILLER_10_197
*184 FILLER_10_209
*185 FILLER_10_21
*186 FILLER_10_221
*187 FILLER_10_233
*188 FILLER_10_245
*189 FILLER_10_251
*190 FILLER_10_253
*191 FILLER_10_265
*192 FILLER_10_27
*193 FILLER_10_277
*194 FILLER_10_289
*195 FILLER_10_29
*196 FILLER_10_297
*197 FILLER_10_3
*198 FILLER_10_35
*199 FILLER_10_52
*200 FILLER_10_64
*201 FILLER_10_76
*202 FILLER_10_85
*203 FILLER_10_97
*204 FILLER_11_105
*205 FILLER_11_111
*206 FILLER_11_113
*207 FILLER_11_125
*208 FILLER_11_137
*209 FILLER_11_149
*210 FILLER_11_161
*211 FILLER_11_167
*212 FILLER_11_169
*213 FILLER_11_181
*214 FILLER_11_193
*215 FILLER_11_205
*216 FILLER_11_217
*217 FILLER_11_223
*218 FILLER_11_225
*219 FILLER_11_237
*220 FILLER_11_24
*221 FILLER_11_249
*222 FILLER_11_261
*223 FILLER_11_273
*224 FILLER_11_279
*225 FILLER_11_281
*226 FILLER_11_293
*227 FILLER_11_3
*228 FILLER_11_48
*229 FILLER_11_57
*230 FILLER_11_69
*231 FILLER_11_7
*232 FILLER_11_81
*233 FILLER_11_93
*234 FILLER_12_109
*235 FILLER_12_121
*236 FILLER_12_133
*237 FILLER_12_139
*238 FILLER_12_141
*239 FILLER_12_153
*240 FILLER_12_165
*241 FILLER_12_177
*242 FILLER_12_189
*243 FILLER_12_195
*244 FILLER_12_197
*245 FILLER_12_209
*246 FILLER_12_221
*247 FILLER_12_23
*248 FILLER_12_233
*249 FILLER_12_245
*250 FILLER_12_251
*251 FILLER_12_253
*252 FILLER_12_265
*253 FILLER_12_27
*254 FILLER_12_277
*255 FILLER_12_289
*256 FILLER_12_297
*257 FILLER_12_3
*258 FILLER_12_37
*259 FILLER_12_41
*260 FILLER_12_58
*261 FILLER_12_70
*262 FILLER_12_82
*263 FILLER_12_85
*264 FILLER_12_97
*265 FILLER_13_109
*266 FILLER_13_113
*267 FILLER_13_125
*268 FILLER_13_137
*269 FILLER_13_14
*270 FILLER_13_149
*271 FILLER_13_161
*272 FILLER_13_167
*273 FILLER_13_169
*274 FILLER_13_181
*275 FILLER_13_193
*276 FILLER_13_205
*277 FILLER_13_217
*278 FILLER_13_223
*279 FILLER_13_225
*280 FILLER_13_237
*281 FILLER_13_249
*282 FILLER_13_261
*283 FILLER_13_273
*284 FILLER_13_279
*285 FILLER_13_281
*286 FILLER_13_293
*287 FILLER_13_36
*288 FILLER_13_48
*289 FILLER_13_6
*290 FILLER_13_73
*291 FILLER_13_85
*292 FILLER_13_97
*293 FILLER_14_109
*294 FILLER_14_121
*295 FILLER_14_133
*296 FILLER_14_139
*297 FILLER_14_141
*298 FILLER_14_153
*299 FILLER_14_165
*300 FILLER_14_177
*301 FILLER_14_189
*302 FILLER_14_195
*303 FILLER_14_197
*304 FILLER_14_20
*305 FILLER_14_209
*306 FILLER_14_221
*307 FILLER_14_233
*308 FILLER_14_245
*309 FILLER_14_251
*310 FILLER_14_253
*311 FILLER_14_265
*312 FILLER_14_277
*313 FILLER_14_289
*314 FILLER_14_29
*315 FILLER_14_297
*316 FILLER_14_3
*317 FILLER_14_37
*318 FILLER_14_54
*319 FILLER_14_66
*320 FILLER_14_78
*321 FILLER_14_85
*322 FILLER_14_97
*323 FILLER_15_105
*324 FILLER_15_111
*325 FILLER_15_113
*326 FILLER_15_125
*327 FILLER_15_137
*328 FILLER_15_149
*329 FILLER_15_15
*330 FILLER_15_161
*331 FILLER_15_167
*332 FILLER_15_169
*333 FILLER_15_181
*334 FILLER_15_193
*335 FILLER_15_205
*336 FILLER_15_217
*337 FILLER_15_223
*338 FILLER_15_225
*339 FILLER_15_237
*340 FILLER_15_249
*341 FILLER_15_261
*342 FILLER_15_273
*343 FILLER_15_279
*344 FILLER_15_281
*345 FILLER_15_293
*346 FILLER_15_3
*347 FILLER_15_32
*348 FILLER_15_52
*349 FILLER_15_57
*350 FILLER_15_69
*351 FILLER_15_81
*352 FILLER_15_93
*353 FILLER_16_109
*354 FILLER_16_121
*355 FILLER_16_133
*356 FILLER_16_139
*357 FILLER_16_141
*358 FILLER_16_153
*359 FILLER_16_165
*360 FILLER_16_177
*361 FILLER_16_189
*362 FILLER_16_195
*363 FILLER_16_197
*364 FILLER_16_209
*365 FILLER_16_21
*366 FILLER_16_221
*367 FILLER_16_233
*368 FILLER_16_245
*369 FILLER_16_251
*370 FILLER_16_253
*371 FILLER_16_265
*372 FILLER_16_27
*373 FILLER_16_277
*374 FILLER_16_289
*375 FILLER_16_29
*376 FILLER_16_297
*377 FILLER_16_3
*378 FILLER_16_37
*379 FILLER_16_54
*380 FILLER_16_66
*381 FILLER_16_78
*382 FILLER_16_85
*383 FILLER_16_97
*384 FILLER_17_105
*385 FILLER_17_111
*386 FILLER_17_113
*387 FILLER_17_125
*388 FILLER_17_13
*389 FILLER_17_137
*390 FILLER_17_149
*391 FILLER_17_161
*392 FILLER_17_167
*393 FILLER_17_169
*394 FILLER_17_181
*395 FILLER_17_193
*396 FILLER_17_205
*397 FILLER_17_217
*398 FILLER_17_223
*399 FILLER_17_225
*400 FILLER_17_237
*401 FILLER_17_249
*402 FILLER_17_261
*403 FILLER_17_273
*404 FILLER_17_279
*405 FILLER_17_281
*406 FILLER_17_293
*407 FILLER_17_37
*408 FILLER_17_49
*409 FILLER_17_55
*410 FILLER_17_57
*411 FILLER_17_69
*412 FILLER_17_81
*413 FILLER_17_93
*414 FILLER_18_109
*415 FILLER_18_118
*416 FILLER_18_130
*417 FILLER_18_138
*418 FILLER_18_141
*419 FILLER_18_15
*420 FILLER_18_153
*421 FILLER_18_165
*422 FILLER_18_177
*423 FILLER_18_189
*424 FILLER_18_195
*425 FILLER_18_197
*426 FILLER_18_209
*427 FILLER_18_221
*428 FILLER_18_233
*429 FILLER_18_245
*430 FILLER_18_251
*431 FILLER_18_253
*432 FILLER_18_265
*433 FILLER_18_27
*434 FILLER_18_277
*435 FILLER_18_289
*436 FILLER_18_29
*437 FILLER_18_297
*438 FILLER_18_3
*439 FILLER_18_41
*440 FILLER_18_53
*441 FILLER_18_65
*442 FILLER_18_77
*443 FILLER_18_83
*444 FILLER_18_85
*445 FILLER_18_97
*446 FILLER_19_10
*447 FILLER_19_105
*448 FILLER_19_111
*449 FILLER_19_113
*450 FILLER_19_125
*451 FILLER_19_137
*452 FILLER_19_149
*453 FILLER_19_161
*454 FILLER_19_167
*455 FILLER_19_169
*456 FILLER_19_181
*457 FILLER_19_193
*458 FILLER_19_205
*459 FILLER_19_217
*460 FILLER_19_223
*461 FILLER_19_225
*462 FILLER_19_237
*463 FILLER_19_249
*464 FILLER_19_261
*465 FILLER_19_273
*466 FILLER_19_279
*467 FILLER_19_281
*468 FILLER_19_293
*469 FILLER_19_31
*470 FILLER_19_43
*471 FILLER_19_55
*472 FILLER_19_57
*473 FILLER_19_69
*474 FILLER_19_81
*475 FILLER_19_93
*476 FILLER_1_105
*477 FILLER_1_111
*478 FILLER_1_113
*479 FILLER_1_125
*480 FILLER_1_137
*481 FILLER_1_149
*482 FILLER_1_161
*483 FILLER_1_167
*484 FILLER_1_169
*485 FILLER_1_181
*486 FILLER_1_193
*487 FILLER_1_205
*488 FILLER_1_217
*489 FILLER_1_223
*490 FILLER_1_225
*491 FILLER_1_237
*492 FILLER_1_24
*493 FILLER_1_249
*494 FILLER_1_261
*495 FILLER_1_273
*496 FILLER_1_279
*497 FILLER_1_28
*498 FILLER_1_281
*499 FILLER_1_293
*500 FILLER_1_3
*501 FILLER_1_45
*502 FILLER_1_53
*503 FILLER_1_57
*504 FILLER_1_69
*505 FILLER_1_7
*506 FILLER_1_81
*507 FILLER_1_93
*508 FILLER_20_113
*509 FILLER_20_125
*510 FILLER_20_137
*511 FILLER_20_141
*512 FILLER_20_153
*513 FILLER_20_165
*514 FILLER_20_177
*515 FILLER_20_189
*516 FILLER_20_195
*517 FILLER_20_197
*518 FILLER_20_20
*519 FILLER_20_209
*520 FILLER_20_221
*521 FILLER_20_233
*522 FILLER_20_245
*523 FILLER_20_251
*524 FILLER_20_253
*525 FILLER_20_265
*526 FILLER_20_277
*527 FILLER_20_289
*528 FILLER_20_29
*529 FILLER_20_297
*530 FILLER_20_3
*531 FILLER_20_41
*532 FILLER_20_53
*533 FILLER_20_61
*534 FILLER_20_69
*535 FILLER_20_81
*536 FILLER_20_85
*537 FILLER_20_9
*538 FILLER_20_97
*539 FILLER_21_102
*540 FILLER_21_110
*541 FILLER_21_113
*542 FILLER_21_125
*543 FILLER_21_137
*544 FILLER_21_149
*545 FILLER_21_15
*546 FILLER_21_161
*547 FILLER_21_167
*548 FILLER_21_169
*549 FILLER_21_181
*550 FILLER_21_193
*551 FILLER_21_205
*552 FILLER_21_217
*553 FILLER_21_223
*554 FILLER_21_225
*555 FILLER_21_237
*556 FILLER_21_249
*557 FILLER_21_25
*558 FILLER_21_261
*559 FILLER_21_273
*560 FILLER_21_279
*561 FILLER_21_281
*562 FILLER_21_293
*563 FILLER_21_3
*564 FILLER_21_37
*565 FILLER_21_49
*566 FILLER_21_55
*567 FILLER_21_57
*568 FILLER_21_69
*569 FILLER_21_74
*570 FILLER_21_90
*571 FILLER_22_102
*572 FILLER_22_109
*573 FILLER_22_121
*574 FILLER_22_133
*575 FILLER_22_139
*576 FILLER_22_141
*577 FILLER_22_153
*578 FILLER_22_165
*579 FILLER_22_177
*580 FILLER_22_189
*581 FILLER_22_195
*582 FILLER_22_197
*583 FILLER_22_20
*584 FILLER_22_209
*585 FILLER_22_221
*586 FILLER_22_233
*587 FILLER_22_245
*588 FILLER_22_251
*589 FILLER_22_253
*590 FILLER_22_265
*591 FILLER_22_277
*592 FILLER_22_289
*593 FILLER_22_29
*594 FILLER_22_297
*595 FILLER_22_3
*596 FILLER_22_36
*597 FILLER_22_46
*598 FILLER_22_54
*599 FILLER_22_62
*600 FILLER_22_70
*601 FILLER_22_78
*602 FILLER_22_8
*603 FILLER_22_85
*604 FILLER_22_89
*605 FILLER_22_97
*606 FILLER_23_103
*607 FILLER_23_108
*608 FILLER_23_122
*609 FILLER_23_134
*610 FILLER_23_146
*611 FILLER_23_15
*612 FILLER_23_158
*613 FILLER_23_166
*614 FILLER_23_169
*615 FILLER_23_181
*616 FILLER_23_193
*617 FILLER_23_205
*618 FILLER_23_217
*619 FILLER_23_223
*620 FILLER_23_225
*621 FILLER_23_237
*622 FILLER_23_249
*623 FILLER_23_261
*624 FILLER_23_27
*625 FILLER_23_273
*626 FILLER_23_279
*627 FILLER_23_281
*628 FILLER_23_293
*629 FILLER_23_3
*630 FILLER_23_39
*631 FILLER_23_51
*632 FILLER_23_55
*633 FILLER_23_57
*634 FILLER_23_76
*635 FILLER_23_86
*636 FILLER_23_95
*637 FILLER_24_100
*638 FILLER_24_112
*639 FILLER_24_124
*640 FILLER_24_136
*641 FILLER_24_141
*642 FILLER_24_15
*643 FILLER_24_153
*644 FILLER_24_165
*645 FILLER_24_177
*646 FILLER_24_189
*647 FILLER_24_195
*648 FILLER_24_197
*649 FILLER_24_209
*650 FILLER_24_221
*651 FILLER_24_233
*652 FILLER_24_245
*653 FILLER_24_251
*654 FILLER_24_253
*655 FILLER_24_265
*656 FILLER_24_27
*657 FILLER_24_277
*658 FILLER_24_289
*659 FILLER_24_29
*660 FILLER_24_297
*661 FILLER_24_3
*662 FILLER_24_37
*663 FILLER_24_41
*664 FILLER_24_52
*665 FILLER_24_64
*666 FILLER_24_76
*667 FILLER_24_85
*668 FILLER_24_91
*669 FILLER_25_108
*670 FILLER_25_113
*671 FILLER_25_125
*672 FILLER_25_137
*673 FILLER_25_149
*674 FILLER_25_15
*675 FILLER_25_161
*676 FILLER_25_167
*677 FILLER_25_169
*678 FILLER_25_181
*679 FILLER_25_193
*680 FILLER_25_205
*681 FILLER_25_217
*682 FILLER_25_223
*683 FILLER_25_225
*684 FILLER_25_237
*685 FILLER_25_249
*686 FILLER_25_261
*687 FILLER_25_27
*688 FILLER_25_273
*689 FILLER_25_279
*690 FILLER_25_281
*691 FILLER_25_293
*692 FILLER_25_3
*693 FILLER_25_39
*694 FILLER_25_51
*695 FILLER_25_55
*696 FILLER_25_57
*697 FILLER_25_69
*698 FILLER_25_77
*699 FILLER_25_83
*700 FILLER_25_92
*701 FILLER_26_108
*702 FILLER_26_117
*703 FILLER_26_129
*704 FILLER_26_137
*705 FILLER_26_141
*706 FILLER_26_15
*707 FILLER_26_153
*708 FILLER_26_165
*709 FILLER_26_177
*710 FILLER_26_189
*711 FILLER_26_195
*712 FILLER_26_197
*713 FILLER_26_209
*714 FILLER_26_221
*715 FILLER_26_233
*716 FILLER_26_245
*717 FILLER_26_251
*718 FILLER_26_253
*719 FILLER_26_265
*720 FILLER_26_27
*721 FILLER_26_277
*722 FILLER_26_289
*723 FILLER_26_29
*724 FILLER_26_297
*725 FILLER_26_3
*726 FILLER_26_41
*727 FILLER_26_53
*728 FILLER_26_65
*729 FILLER_26_77
*730 FILLER_26_83
*731 FILLER_26_93
*732 FILLER_27_110
*733 FILLER_27_113
*734 FILLER_27_125
*735 FILLER_27_137
*736 FILLER_27_149
*737 FILLER_27_15
*738 FILLER_27_161
*739 FILLER_27_167
*740 FILLER_27_169
*741 FILLER_27_181
*742 FILLER_27_193
*743 FILLER_27_205
*744 FILLER_27_217
*745 FILLER_27_223
*746 FILLER_27_225
*747 FILLER_27_237
*748 FILLER_27_249
*749 FILLER_27_261
*750 FILLER_27_27
*751 FILLER_27_273
*752 FILLER_27_279
*753 FILLER_27_281
*754 FILLER_27_293
*755 FILLER_27_3
*756 FILLER_27_39
*757 FILLER_27_47
*758 FILLER_27_55
*759 FILLER_27_57
*760 FILLER_27_69
*761 FILLER_27_83
*762 FILLER_27_89
*763 FILLER_27_98
*764 FILLER_28_104
*765 FILLER_28_116
*766 FILLER_28_128
*767 FILLER_28_141
*768 FILLER_28_15
*769 FILLER_28_153
*770 FILLER_28_165
*771 FILLER_28_177
*772 FILLER_28_189
*773 FILLER_28_195
*774 FILLER_28_197
*775 FILLER_28_209
*776 FILLER_28_221
*777 FILLER_28_233
*778 FILLER_28_245
*779 FILLER_28_251
*780 FILLER_28_253
*781 FILLER_28_265
*782 FILLER_28_27
*783 FILLER_28_277
*784 FILLER_28_289
*785 FILLER_28_29
*786 FILLER_28_297
*787 FILLER_28_3
*788 FILLER_28_41
*789 FILLER_28_50
*790 FILLER_28_58
*791 FILLER_28_64
*792 FILLER_28_77
*793 FILLER_28_83
*794 FILLER_28_85
*795 FILLER_28_89
*796 FILLER_28_94
*797 FILLER_29_102
*798 FILLER_29_110
*799 FILLER_29_120
*800 FILLER_29_132
*801 FILLER_29_144
*802 FILLER_29_15
*803 FILLER_29_156
*804 FILLER_29_169
*805 FILLER_29_181
*806 FILLER_29_193
*807 FILLER_29_205
*808 FILLER_29_217
*809 FILLER_29_223
*810 FILLER_29_225
*811 FILLER_29_237
*812 FILLER_29_249
*813 FILLER_29_261
*814 FILLER_29_27
*815 FILLER_29_273
*816 FILLER_29_279
*817 FILLER_29_281
*818 FILLER_29_293
*819 FILLER_29_3
*820 FILLER_29_31
*821 FILLER_29_38
*822 FILLER_29_52
*823 FILLER_29_57
*824 FILLER_29_61
*825 FILLER_29_68
*826 FILLER_29_76
*827 FILLER_29_85
*828 FILLER_29_93
*829 FILLER_2_109
*830 FILLER_2_121
*831 FILLER_2_133
*832 FILLER_2_139
*833 FILLER_2_141
*834 FILLER_2_153
*835 FILLER_2_165
*836 FILLER_2_177
*837 FILLER_2_189
*838 FILLER_2_195
*839 FILLER_2_197
*840 FILLER_2_209
*841 FILLER_2_221
*842 FILLER_2_233
*843 FILLER_2_24
*844 FILLER_2_245
*845 FILLER_2_251
*846 FILLER_2_253
*847 FILLER_2_265
*848 FILLER_2_277
*849 FILLER_2_289
*850 FILLER_2_29
*851 FILLER_2_297
*852 FILLER_2_3
*853 FILLER_2_35
*854 FILLER_2_52
*855 FILLER_2_64
*856 FILLER_2_76
*857 FILLER_2_85
*858 FILLER_2_97
*859 FILLER_30_111
*860 FILLER_30_123
*861 FILLER_30_135
*862 FILLER_30_139
*863 FILLER_30_141
*864 FILLER_30_15
*865 FILLER_30_153
*866 FILLER_30_165
*867 FILLER_30_177
*868 FILLER_30_189
*869 FILLER_30_195
*870 FILLER_30_197
*871 FILLER_30_209
*872 FILLER_30_221
*873 FILLER_30_233
*874 FILLER_30_245
*875 FILLER_30_251
*876 FILLER_30_253
*877 FILLER_30_265
*878 FILLER_30_27
*879 FILLER_30_277
*880 FILLER_30_289
*881 FILLER_30_29
*882 FILLER_30_297
*883 FILLER_30_3
*884 FILLER_30_41
*885 FILLER_30_57
*886 FILLER_30_65
*887 FILLER_30_77
*888 FILLER_30_83
*889 FILLER_30_92
*890 FILLER_30_99
*891 FILLER_31_108
*892 FILLER_31_113
*893 FILLER_31_125
*894 FILLER_31_137
*895 FILLER_31_149
*896 FILLER_31_15
*897 FILLER_31_161
*898 FILLER_31_167
*899 FILLER_31_169
*900 FILLER_31_181
*901 FILLER_31_193
*902 FILLER_31_205
*903 FILLER_31_217
*904 FILLER_31_223
*905 FILLER_31_225
*906 FILLER_31_237
*907 FILLER_31_249
*908 FILLER_31_261
*909 FILLER_31_27
*910 FILLER_31_273
*911 FILLER_31_279
*912 FILLER_31_281
*913 FILLER_31_293
*914 FILLER_31_3
*915 FILLER_31_39
*916 FILLER_31_52
*917 FILLER_31_57
*918 FILLER_31_64
*919 FILLER_31_78
*920 FILLER_31_88
*921 FILLER_31_95
*922 FILLER_32_104
*923 FILLER_32_116
*924 FILLER_32_128
*925 FILLER_32_141
*926 FILLER_32_15
*927 FILLER_32_153
*928 FILLER_32_165
*929 FILLER_32_177
*930 FILLER_32_189
*931 FILLER_32_195
*932 FILLER_32_197
*933 FILLER_32_209
*934 FILLER_32_221
*935 FILLER_32_233
*936 FILLER_32_245
*937 FILLER_32_251
*938 FILLER_32_253
*939 FILLER_32_265
*940 FILLER_32_27
*941 FILLER_32_277
*942 FILLER_32_289
*943 FILLER_32_29
*944 FILLER_32_297
*945 FILLER_32_3
*946 FILLER_32_37
*947 FILLER_32_47
*948 FILLER_32_59
*949 FILLER_32_63
*950 FILLER_32_70
*951 FILLER_32_82
*952 FILLER_32_85
*953 FILLER_32_92
*954 FILLER_33_107
*955 FILLER_33_111
*956 FILLER_33_120
*957 FILLER_33_132
*958 FILLER_33_144
*959 FILLER_33_15
*960 FILLER_33_156
*961 FILLER_33_169
*962 FILLER_33_181
*963 FILLER_33_193
*964 FILLER_33_205
*965 FILLER_33_217
*966 FILLER_33_223
*967 FILLER_33_225
*968 FILLER_33_237
*969 FILLER_33_249
*970 FILLER_33_261
*971 FILLER_33_27
*972 FILLER_33_273
*973 FILLER_33_279
*974 FILLER_33_281
*975 FILLER_33_293
*976 FILLER_33_3
*977 FILLER_33_39
*978 FILLER_33_48
*979 FILLER_33_57
*980 FILLER_33_69
*981 FILLER_33_83
*982 FILLER_33_95
*983 FILLER_34_105
*984 FILLER_34_117
*985 FILLER_34_129
*986 FILLER_34_137
*987 FILLER_34_141
*988 FILLER_34_15
*989 FILLER_34_153
*990 FILLER_34_165
*991 FILLER_34_177
*992 FILLER_34_189
*993 FILLER_34_195
*994 FILLER_34_197
*995 FILLER_34_209
*996 FILLER_34_221
*997 FILLER_34_233
*998 FILLER_34_245
*999 FILLER_34_251
*1000 FILLER_34_253
*1001 FILLER_34_265
*1002 FILLER_34_27
*1003 FILLER_34_277
*1004 FILLER_34_289
*1005 FILLER_34_29
*1006 FILLER_34_297
*1007 FILLER_34_3
*1008 FILLER_34_41
*1009 FILLER_34_53
*1010 FILLER_34_61
*1011 FILLER_34_72
*1012 FILLER_34_93
*1013 FILLER_35_103
*1014 FILLER_35_111
*1015 FILLER_35_113
*1016 FILLER_35_12
*1017 FILLER_35_125
*1018 FILLER_35_137
*1019 FILLER_35_149
*1020 FILLER_35_161
*1021 FILLER_35_167
*1022 FILLER_35_169
*1023 FILLER_35_181
*1024 FILLER_35_193
*1025 FILLER_35_205
*1026 FILLER_35_217
*1027 FILLER_35_223
*1028 FILLER_35_225
*1029 FILLER_35_237
*1030 FILLER_35_24
*1031 FILLER_35_249
*1032 FILLER_35_261
*1033 FILLER_35_273
*1034 FILLER_35_279
*1035 FILLER_35_281
*1036 FILLER_35_293
*1037 FILLER_35_3
*1038 FILLER_35_36
*1039 FILLER_35_48
*1040 FILLER_35_57
*1041 FILLER_35_69
*1042 FILLER_35_7
*1043 FILLER_35_81
*1044 FILLER_35_91
*1045 FILLER_36_100
*1046 FILLER_36_112
*1047 FILLER_36_124
*1048 FILLER_36_136
*1049 FILLER_36_141
*1050 FILLER_36_15
*1051 FILLER_36_153
*1052 FILLER_36_165
*1053 FILLER_36_177
*1054 FILLER_36_189
*1055 FILLER_36_195
*1056 FILLER_36_197
*1057 FILLER_36_209
*1058 FILLER_36_221
*1059 FILLER_36_233
*1060 FILLER_36_245
*1061 FILLER_36_251
*1062 FILLER_36_253
*1063 FILLER_36_265
*1064 FILLER_36_27
*1065 FILLER_36_277
*1066 FILLER_36_289
*1067 FILLER_36_29
*1068 FILLER_36_297
*1069 FILLER_36_3
*1070 FILLER_36_37
*1071 FILLER_36_49
*1072 FILLER_36_61
*1073 FILLER_36_73
*1074 FILLER_36_81
*1075 FILLER_36_85
*1076 FILLER_36_91
*1077 FILLER_36_95
*1078 FILLER_37_105
*1079 FILLER_37_111
*1080 FILLER_37_113
*1081 FILLER_37_125
*1082 FILLER_37_137
*1083 FILLER_37_149
*1084 FILLER_37_15
*1085 FILLER_37_161
*1086 FILLER_37_167
*1087 FILLER_37_169
*1088 FILLER_37_181
*1089 FILLER_37_193
*1090 FILLER_37_205
*1091 FILLER_37_217
*1092 FILLER_37_223
*1093 FILLER_37_225
*1094 FILLER_37_237
*1095 FILLER_37_249
*1096 FILLER_37_261
*1097 FILLER_37_27
*1098 FILLER_37_273
*1099 FILLER_37_279
*1100 FILLER_37_281
*1101 FILLER_37_293
*1102 FILLER_37_3
*1103 FILLER_37_39
*1104 FILLER_37_51
*1105 FILLER_37_55
*1106 FILLER_37_57
*1107 FILLER_37_72
*1108 FILLER_37_84
*1109 FILLER_37_93
*1110 FILLER_38_104
*1111 FILLER_38_116
*1112 FILLER_38_128
*1113 FILLER_38_141
*1114 FILLER_38_15
*1115 FILLER_38_153
*1116 FILLER_38_165
*1117 FILLER_38_177
*1118 FILLER_38_189
*1119 FILLER_38_195
*1120 FILLER_38_197
*1121 FILLER_38_209
*1122 FILLER_38_221
*1123 FILLER_38_233
*1124 FILLER_38_245
*1125 FILLER_38_251
*1126 FILLER_38_253
*1127 FILLER_38_265
*1128 FILLER_38_27
*1129 FILLER_38_277
*1130 FILLER_38_289
*1131 FILLER_38_29
*1132 FILLER_38_297
*1133 FILLER_38_3
*1134 FILLER_38_41
*1135 FILLER_38_53
*1136 FILLER_38_64
*1137 FILLER_38_76
*1138 FILLER_38_92
*1139 FILLER_39_107
*1140 FILLER_39_111
*1141 FILLER_39_113
*1142 FILLER_39_125
*1143 FILLER_39_13
*1144 FILLER_39_137
*1145 FILLER_39_149
*1146 FILLER_39_161
*1147 FILLER_39_167
*1148 FILLER_39_169
*1149 FILLER_39_181
*1150 FILLER_39_193
*1151 FILLER_39_205
*1152 FILLER_39_217
*1153 FILLER_39_223
*1154 FILLER_39_225
*1155 FILLER_39_237
*1156 FILLER_39_249
*1157 FILLER_39_25
*1158 FILLER_39_261
*1159 FILLER_39_273
*1160 FILLER_39_279
*1161 FILLER_39_281
*1162 FILLER_39_293
*1163 FILLER_39_3
*1164 FILLER_39_37
*1165 FILLER_39_52
*1166 FILLER_39_57
*1167 FILLER_39_63
*1168 FILLER_39_71
*1169 FILLER_39_83
*1170 FILLER_39_95
*1171 FILLER_3_105
*1172 FILLER_3_111
*1173 FILLER_3_113
*1174 FILLER_3_12
*1175 FILLER_3_125
*1176 FILLER_3_137
*1177 FILLER_3_149
*1178 FILLER_3_161
*1179 FILLER_3_167
*1180 FILLER_3_169
*1181 FILLER_3_181
*1182 FILLER_3_193
*1183 FILLER_3_205
*1184 FILLER_3_217
*1185 FILLER_3_223
*1186 FILLER_3_225
*1187 FILLER_3_237
*1188 FILLER_3_249
*1189 FILLER_3_261
*1190 FILLER_3_273
*1191 FILLER_3_279
*1192 FILLER_3_281
*1193 FILLER_3_293
*1194 FILLER_3_36
*1195 FILLER_3_48
*1196 FILLER_3_57
*1197 FILLER_3_69
*1198 FILLER_3_81
*1199 FILLER_3_93
*1200 FILLER_40_109
*1201 FILLER_40_121
*1202 FILLER_40_13
*1203 FILLER_40_133
*1204 FILLER_40_139
*1205 FILLER_40_141
*1206 FILLER_40_153
*1207 FILLER_40_165
*1208 FILLER_40_177
*1209 FILLER_40_189
*1210 FILLER_40_195
*1211 FILLER_40_197
*1212 FILLER_40_209
*1213 FILLER_40_221
*1214 FILLER_40_233
*1215 FILLER_40_245
*1216 FILLER_40_25
*1217 FILLER_40_251
*1218 FILLER_40_253
*1219 FILLER_40_265
*1220 FILLER_40_277
*1221 FILLER_40_289
*1222 FILLER_40_29
*1223 FILLER_40_297
*1224 FILLER_40_3
*1225 FILLER_40_41
*1226 FILLER_40_53
*1227 FILLER_40_65
*1228 FILLER_40_74
*1229 FILLER_40_82
*1230 FILLER_40_85
*1231 FILLER_40_97
*1232 FILLER_41_105
*1233 FILLER_41_111
*1234 FILLER_41_113
*1235 FILLER_41_125
*1236 FILLER_41_137
*1237 FILLER_41_149
*1238 FILLER_41_15
*1239 FILLER_41_161
*1240 FILLER_41_167
*1241 FILLER_41_169
*1242 FILLER_41_181
*1243 FILLER_41_193
*1244 FILLER_41_205
*1245 FILLER_41_217
*1246 FILLER_41_223
*1247 FILLER_41_225
*1248 FILLER_41_237
*1249 FILLER_41_249
*1250 FILLER_41_261
*1251 FILLER_41_27
*1252 FILLER_41_273
*1253 FILLER_41_279
*1254 FILLER_41_281
*1255 FILLER_41_293
*1256 FILLER_41_3
*1257 FILLER_41_39
*1258 FILLER_41_51
*1259 FILLER_41_55
*1260 FILLER_41_57
*1261 FILLER_41_69
*1262 FILLER_41_81
*1263 FILLER_41_93
*1264 FILLER_42_109
*1265 FILLER_42_121
*1266 FILLER_42_133
*1267 FILLER_42_139
*1268 FILLER_42_141
*1269 FILLER_42_15
*1270 FILLER_42_153
*1271 FILLER_42_165
*1272 FILLER_42_177
*1273 FILLER_42_189
*1274 FILLER_42_195
*1275 FILLER_42_197
*1276 FILLER_42_209
*1277 FILLER_42_221
*1278 FILLER_42_233
*1279 FILLER_42_245
*1280 FILLER_42_251
*1281 FILLER_42_253
*1282 FILLER_42_265
*1283 FILLER_42_27
*1284 FILLER_42_277
*1285 FILLER_42_289
*1286 FILLER_42_29
*1287 FILLER_42_297
*1288 FILLER_42_3
*1289 FILLER_42_41
*1290 FILLER_42_53
*1291 FILLER_42_65
*1292 FILLER_42_77
*1293 FILLER_42_83
*1294 FILLER_42_85
*1295 FILLER_42_97
*1296 FILLER_43_105
*1297 FILLER_43_111
*1298 FILLER_43_113
*1299 FILLER_43_125
*1300 FILLER_43_137
*1301 FILLER_43_149
*1302 FILLER_43_15
*1303 FILLER_43_161
*1304 FILLER_43_167
*1305 FILLER_43_169
*1306 FILLER_43_181
*1307 FILLER_43_193
*1308 FILLER_43_205
*1309 FILLER_43_217
*1310 FILLER_43_223
*1311 FILLER_43_225
*1312 FILLER_43_23
*1313 FILLER_43_237
*1314 FILLER_43_249
*1315 FILLER_43_261
*1316 FILLER_43_273
*1317 FILLER_43_279
*1318 FILLER_43_281
*1319 FILLER_43_29
*1320 FILLER_43_293
*1321 FILLER_43_3
*1322 FILLER_43_41
*1323 FILLER_43_53
*1324 FILLER_43_57
*1325 FILLER_43_69
*1326 FILLER_43_81
*1327 FILLER_43_93
*1328 FILLER_44_109
*1329 FILLER_44_121
*1330 FILLER_44_133
*1331 FILLER_44_139
*1332 FILLER_44_141
*1333 FILLER_44_15
*1334 FILLER_44_153
*1335 FILLER_44_165
*1336 FILLER_44_177
*1337 FILLER_44_189
*1338 FILLER_44_195
*1339 FILLER_44_197
*1340 FILLER_44_209
*1341 FILLER_44_221
*1342 FILLER_44_233
*1343 FILLER_44_245
*1344 FILLER_44_251
*1345 FILLER_44_253
*1346 FILLER_44_265
*1347 FILLER_44_27
*1348 FILLER_44_277
*1349 FILLER_44_289
*1350 FILLER_44_297
*1351 FILLER_44_3
*1352 FILLER_44_33
*1353 FILLER_44_45
*1354 FILLER_44_57
*1355 FILLER_44_69
*1356 FILLER_44_81
*1357 FILLER_44_85
*1358 FILLER_44_97
*1359 FILLER_45_105
*1360 FILLER_45_111
*1361 FILLER_45_113
*1362 FILLER_45_125
*1363 FILLER_45_137
*1364 FILLER_45_149
*1365 FILLER_45_15
*1366 FILLER_45_161
*1367 FILLER_45_167
*1368 FILLER_45_169
*1369 FILLER_45_181
*1370 FILLER_45_193
*1371 FILLER_45_205
*1372 FILLER_45_217
*1373 FILLER_45_223
*1374 FILLER_45_225
*1375 FILLER_45_237
*1376 FILLER_45_249
*1377 FILLER_45_261
*1378 FILLER_45_27
*1379 FILLER_45_273
*1380 FILLER_45_279
*1381 FILLER_45_281
*1382 FILLER_45_293
*1383 FILLER_45_3
*1384 FILLER_45_39
*1385 FILLER_45_51
*1386 FILLER_45_55
*1387 FILLER_45_57
*1388 FILLER_45_69
*1389 FILLER_45_81
*1390 FILLER_45_93
*1391 FILLER_46_109
*1392 FILLER_46_121
*1393 FILLER_46_133
*1394 FILLER_46_139
*1395 FILLER_46_141
*1396 FILLER_46_15
*1397 FILLER_46_153
*1398 FILLER_46_165
*1399 FILLER_46_177
*1400 FILLER_46_189
*1401 FILLER_46_195
*1402 FILLER_46_197
*1403 FILLER_46_209
*1404 FILLER_46_221
*1405 FILLER_46_233
*1406 FILLER_46_245
*1407 FILLER_46_251
*1408 FILLER_46_253
*1409 FILLER_46_265
*1410 FILLER_46_27
*1411 FILLER_46_277
*1412 FILLER_46_289
*1413 FILLER_46_29
*1414 FILLER_46_297
*1415 FILLER_46_3
*1416 FILLER_46_41
*1417 FILLER_46_53
*1418 FILLER_46_65
*1419 FILLER_46_77
*1420 FILLER_46_83
*1421 FILLER_46_85
*1422 FILLER_46_97
*1423 FILLER_47_10
*1424 FILLER_47_105
*1425 FILLER_47_111
*1426 FILLER_47_113
*1427 FILLER_47_125
*1428 FILLER_47_137
*1429 FILLER_47_149
*1430 FILLER_47_161
*1431 FILLER_47_167
*1432 FILLER_47_169
*1433 FILLER_47_181
*1434 FILLER_47_193
*1435 FILLER_47_205
*1436 FILLER_47_217
*1437 FILLER_47_22
*1438 FILLER_47_223
*1439 FILLER_47_225
*1440 FILLER_47_237
*1441 FILLER_47_249
*1442 FILLER_47_261
*1443 FILLER_47_273
*1444 FILLER_47_279
*1445 FILLER_47_281
*1446 FILLER_47_293
*1447 FILLER_47_3
*1448 FILLER_47_34
*1449 FILLER_47_46
*1450 FILLER_47_54
*1451 FILLER_47_57
*1452 FILLER_47_69
*1453 FILLER_47_81
*1454 FILLER_47_93
*1455 FILLER_48_109
*1456 FILLER_48_121
*1457 FILLER_48_133
*1458 FILLER_48_139
*1459 FILLER_48_141
*1460 FILLER_48_15
*1461 FILLER_48_153
*1462 FILLER_48_165
*1463 FILLER_48_177
*1464 FILLER_48_189
*1465 FILLER_48_195
*1466 FILLER_48_197
*1467 FILLER_48_209
*1468 FILLER_48_221
*1469 FILLER_48_233
*1470 FILLER_48_245
*1471 FILLER_48_251
*1472 FILLER_48_253
*1473 FILLER_48_265
*1474 FILLER_48_27
*1475 FILLER_48_277
*1476 FILLER_48_289
*1477 FILLER_48_29
*1478 FILLER_48_297
*1479 FILLER_48_3
*1480 FILLER_48_41
*1481 FILLER_48_53
*1482 FILLER_48_65
*1483 FILLER_48_77
*1484 FILLER_48_83
*1485 FILLER_48_85
*1486 FILLER_48_97
*1487 FILLER_49_105
*1488 FILLER_49_111
*1489 FILLER_49_113
*1490 FILLER_49_125
*1491 FILLER_49_137
*1492 FILLER_49_149
*1493 FILLER_49_15
*1494 FILLER_49_161
*1495 FILLER_49_167
*1496 FILLER_49_169
*1497 FILLER_49_181
*1498 FILLER_49_193
*1499 FILLER_49_205
*1500 FILLER_49_217
*1501 FILLER_49_223
*1502 FILLER_49_225
*1503 FILLER_49_237
*1504 FILLER_49_249
*1505 FILLER_49_261
*1506 FILLER_49_27
*1507 FILLER_49_273
*1508 FILLER_49_279
*1509 FILLER_49_281
*1510 FILLER_49_293
*1511 FILLER_49_3
*1512 FILLER_49_39
*1513 FILLER_49_51
*1514 FILLER_49_55
*1515 FILLER_49_57
*1516 FILLER_49_69
*1517 FILLER_49_81
*1518 FILLER_49_93
*1519 FILLER_4_109
*1520 FILLER_4_121
*1521 FILLER_4_133
*1522 FILLER_4_139
*1523 FILLER_4_141
*1524 FILLER_4_153
*1525 FILLER_4_165
*1526 FILLER_4_177
*1527 FILLER_4_189
*1528 FILLER_4_195
*1529 FILLER_4_197
*1530 FILLER_4_209
*1531 FILLER_4_221
*1532 FILLER_4_233
*1533 FILLER_4_24
*1534 FILLER_4_245
*1535 FILLER_4_251
*1536 FILLER_4_253
*1537 FILLER_4_265
*1538 FILLER_4_277
*1539 FILLER_4_289
*1540 FILLER_4_297
*1541 FILLER_4_3
*1542 FILLER_4_39
*1543 FILLER_4_43
*1544 FILLER_4_60
*1545 FILLER_4_72
*1546 FILLER_4_85
*1547 FILLER_4_97
*1548 FILLER_50_109
*1549 FILLER_50_121
*1550 FILLER_50_133
*1551 FILLER_50_139
*1552 FILLER_50_141
*1553 FILLER_50_15
*1554 FILLER_50_153
*1555 FILLER_50_165
*1556 FILLER_50_177
*1557 FILLER_50_189
*1558 FILLER_50_195
*1559 FILLER_50_197
*1560 FILLER_50_209
*1561 FILLER_50_221
*1562 FILLER_50_233
*1563 FILLER_50_245
*1564 FILLER_50_251
*1565 FILLER_50_253
*1566 FILLER_50_265
*1567 FILLER_50_27
*1568 FILLER_50_277
*1569 FILLER_50_289
*1570 FILLER_50_29
*1571 FILLER_50_297
*1572 FILLER_50_3
*1573 FILLER_50_41
*1574 FILLER_50_53
*1575 FILLER_50_65
*1576 FILLER_50_77
*1577 FILLER_50_83
*1578 FILLER_50_85
*1579 FILLER_50_97
*1580 FILLER_51_105
*1581 FILLER_51_111
*1582 FILLER_51_113
*1583 FILLER_51_125
*1584 FILLER_51_137
*1585 FILLER_51_149
*1586 FILLER_51_15
*1587 FILLER_51_161
*1588 FILLER_51_167
*1589 FILLER_51_169
*1590 FILLER_51_181
*1591 FILLER_51_193
*1592 FILLER_51_205
*1593 FILLER_51_217
*1594 FILLER_51_223
*1595 FILLER_51_225
*1596 FILLER_51_237
*1597 FILLER_51_249
*1598 FILLER_51_261
*1599 FILLER_51_27
*1600 FILLER_51_273