*SPEF "ieee 1481-1999"
*DESIGN "user_module_341353928049295956"
*DATE "11:11:11 Fri 11 11, 1111"
*VENDOR "OpenRCX"
*PROGRAM "Parallel Extraction"
*VERSION "1.0"
*DESIGN_FLOW "NAME_SCOPE LOCAL" "PIN_CAP NONE"
*DIVIDER /
*DELIMITER :
*BUS_DELIMITER []
*T_UNIT 1 NS
*C_UNIT 1 PF
*R_UNIT 1 OHM
*L_UNIT 1 HENRY

*NAME_MAP
*1 io_in[0]
*2 io_in[1]
*3 io_in[2]
*4 io_in[3]
*5 io_in[4]
*6 io_in[5]
*7 io_in[6]
*8 io_in[7]
*9 io_out[0]
*10 io_out[1]
*11 io_out[2]
*12 io_out[3]
*13 io_out[4]
*14 io_out[5]
*15 io_out[6]
*16 io_out[7]
*19 flipflop1\.d
*20 flipflop1\.q
*21 flipflop10\.clk
*22 flipflop10\.d
*23 flipflop10\.q
*24 flipflop11\.clk
*25 flipflop11\.d
*26 flipflop11\.q
*27 flipflop12\.d
*28 flipflop12\.q
*29 flipflop13\.clk
*30 flipflop13\.d
*31 flipflop13\.q
*32 flipflop14\.d
*33 flipflop14\.q
*34 flipflop15\.d
*35 flipflop2\.d
*36 flipflop2\.q
*37 flipflop3\.clk
*38 flipflop3\.d
*39 flipflop4\.d
*40 flipflop5\.clk
*41 flipflop5\.d
*42 flipflop6\.clk
*43 flipflop6\.d
*44 flipflop7\.clk
*45 flipflop7\.d
*46 flipflop8\.d
*47 flipflop8\.q
*48 flipflop9\.d
*49 FILLER_0_109
*50 FILLER_0_113
*51 FILLER_0_125
*52 FILLER_0_137
*53 FILLER_0_141
*54 FILLER_0_15
*55 FILLER_0_153
*56 FILLER_0_165
*57 FILLER_0_169
*58 FILLER_0_181
*59 FILLER_0_193
*60 FILLER_0_197
*61 FILLER_0_209
*62 FILLER_0_221
*63 FILLER_0_225
*64 FILLER_0_237
*65 FILLER_0_249
*66 FILLER_0_253
*67 FILLER_0_265
*68 FILLER_0_27
*69 FILLER_0_277
*70 FILLER_0_281
*71 FILLER_0_29
*72 FILLER_0_293
*73 FILLER_0_3
*74 FILLER_0_41
*75 FILLER_0_53
*76 FILLER_0_57
*77 FILLER_0_69
*78 FILLER_0_81
*79 FILLER_0_85
*80 FILLER_0_97
*81 FILLER_10_109
*82 FILLER_10_121
*83 FILLER_10_133
*84 FILLER_10_139
*85 FILLER_10_141
*86 FILLER_10_15
*87 FILLER_10_153
*88 FILLER_10_165
*89 FILLER_10_177
*90 FILLER_10_189
*91 FILLER_10_195
*92 FILLER_10_197
*93 FILLER_10_209
*94 FILLER_10_221
*95 FILLER_10_233
*96 FILLER_10_245
*97 FILLER_10_251
*98 FILLER_10_253
*99 FILLER_10_265
*100 FILLER_10_27
*101 FILLER_10_277
*102 FILLER_10_289
*103 FILLER_10_29
*104 FILLER_10_297
*105 FILLER_10_3
*106 FILLER_10_41
*107 FILLER_10_53
*108 FILLER_10_65
*109 FILLER_10_77
*110 FILLER_10_83
*111 FILLER_10_85
*112 FILLER_10_97
*113 FILLER_11_105
*114 FILLER_11_111
*115 FILLER_11_113
*116 FILLER_11_125
*117 FILLER_11_137
*118 FILLER_11_149
*119 FILLER_11_15
*120 FILLER_11_161
*121 FILLER_11_167
*122 FILLER_11_169
*123 FILLER_11_181
*124 FILLER_11_193
*125 FILLER_11_205
*126 FILLER_11_217
*127 FILLER_11_223
*128 FILLER_11_225
*129 FILLER_11_237
*130 FILLER_11_249
*131 FILLER_11_261
*132 FILLER_11_27
*133 FILLER_11_273
*134 FILLER_11_279
*135 FILLER_11_281
*136 FILLER_11_293
*137 FILLER_11_3
*138 FILLER_11_39
*139 FILLER_11_51
*140 FILLER_11_55
*141 FILLER_11_57
*142 FILLER_11_69
*143 FILLER_11_81
*144 FILLER_11_93
*145 FILLER_12_109
*146 FILLER_12_121
*147 FILLER_12_133
*148 FILLER_12_139
*149 FILLER_12_141
*150 FILLER_12_15
*151 FILLER_12_153
*152 FILLER_12_165
*153 FILLER_12_177
*154 FILLER_12_189
*155 FILLER_12_195
*156 FILLER_12_197
*157 FILLER_12_209
*158 FILLER_12_221
*159 FILLER_12_233
*160 FILLER_12_245
*161 FILLER_12_251
*162 FILLER_12_253
*163 FILLER_12_265
*164 FILLER_12_27
*165 FILLER_12_277
*166 FILLER_12_289
*167 FILLER_12_29
*168 FILLER_12_297
*169 FILLER_12_3
*170 FILLER_12_41
*171 FILLER_12_53
*172 FILLER_12_65
*173 FILLER_12_77
*174 FILLER_12_83
*175 FILLER_12_85
*176 FILLER_12_97
*177 FILLER_13_105
*178 FILLER_13_111
*179 FILLER_13_113
*180 FILLER_13_125
*181 FILLER_13_137
*182 FILLER_13_149
*183 FILLER_13_15
*184 FILLER_13_161
*185 FILLER_13_167
*186 FILLER_13_169
*187 FILLER_13_181
*188 FILLER_13_193
*189 FILLER_13_205
*190 FILLER_13_217
*191 FILLER_13_223
*192 FILLER_13_225
*193 FILLER_13_237
*194 FILLER_13_249
*195 FILLER_13_261
*196 FILLER_13_27
*197 FILLER_13_273
*198 FILLER_13_279
*199 FILLER_13_281
*200 FILLER_13_293
*201 FILLER_13_3
*202 FILLER_13_39
*203 FILLER_13_51
*204 FILLER_13_55
*205 FILLER_13_57
*206 FILLER_13_69
*207 FILLER_13_81
*208 FILLER_13_93
*209 FILLER_14_109
*210 FILLER_14_121
*211 FILLER_14_133
*212 FILLER_14_139
*213 FILLER_14_141
*214 FILLER_14_15
*215 FILLER_14_153
*216 FILLER_14_165
*217 FILLER_14_177
*218 FILLER_14_189
*219 FILLER_14_195
*220 FILLER_14_197
*221 FILLER_14_209
*222 FILLER_14_221
*223 FILLER_14_233
*224 FILLER_14_245
*225 FILLER_14_251
*226 FILLER_14_253
*227 FILLER_14_265
*228 FILLER_14_27
*229 FILLER_14_277
*230 FILLER_14_289
*231 FILLER_14_29
*232 FILLER_14_297
*233 FILLER_14_3
*234 FILLER_14_41
*235 FILLER_14_53
*236 FILLER_14_65
*237 FILLER_14_77
*238 FILLER_14_83
*239 FILLER_14_85
*240 FILLER_14_97
*241 FILLER_15_105
*242 FILLER_15_111
*243 FILLER_15_113
*244 FILLER_15_125
*245 FILLER_15_137
*246 FILLER_15_149
*247 FILLER_15_15
*248 FILLER_15_161
*249 FILLER_15_167
*250 FILLER_15_169
*251 FILLER_15_181
*252 FILLER_15_193
*253 FILLER_15_205
*254 FILLER_15_217
*255 FILLER_15_223
*256 FILLER_15_225
*257 FILLER_15_237
*258 FILLER_15_249
*259 FILLER_15_261
*260 FILLER_15_27
*261 FILLER_15_273
*262 FILLER_15_279
*263 FILLER_15_281
*264 FILLER_15_293
*265 FILLER_15_3
*266 FILLER_15_39
*267 FILLER_15_51
*268 FILLER_15_55
*269 FILLER_15_57
*270 FILLER_15_69
*271 FILLER_15_81
*272 FILLER_15_93
*273 FILLER_16_109
*274 FILLER_16_121
*275 FILLER_16_133
*276 FILLER_16_139
*277 FILLER_16_141
*278 FILLER_16_15
*279 FILLER_16_153
*280 FILLER_16_165
*281 FILLER_16_177
*282 FILLER_16_189
*283 FILLER_16_195
*284 FILLER_16_197
*285 FILLER_16_209
*286 FILLER_16_221
*287 FILLER_16_233
*288 FILLER_16_245
*289 FILLER_16_251
*290 FILLER_16_253
*291 FILLER_16_265
*292 FILLER_16_27
*293 FILLER_16_277
*294 FILLER_16_289
*295 FILLER_16_29
*296 FILLER_16_297
*297 FILLER_16_3
*298 FILLER_16_41
*299 FILLER_16_53
*300 FILLER_16_65
*301 FILLER_16_77
*302 FILLER_16_83
*303 FILLER_16_85
*304 FILLER_16_97
*305 FILLER_17_105
*306 FILLER_17_111
*307 FILLER_17_113
*308 FILLER_17_125
*309 FILLER_17_137
*310 FILLER_17_149
*311 FILLER_17_15
*312 FILLER_17_161
*313 FILLER_17_167
*314 FILLER_17_169
*315 FILLER_17_181
*316 FILLER_17_193
*317 FILLER_17_205
*318 FILLER_17_217
*319 FILLER_17_223
*320 FILLER_17_225
*321 FILLER_17_237
*322 FILLER_17_249
*323 FILLER_17_261
*324 FILLER_17_27
*325 FILLER_17_273
*326 FILLER_17_279
*327 FILLER_17_281
*328 FILLER_17_293
*329 FILLER_17_3
*330 FILLER_17_39
*331 FILLER_17_51
*332 FILLER_17_55
*333 FILLER_17_57
*334 FILLER_17_69
*335 FILLER_17_81
*336 FILLER_17_93
*337 FILLER_18_109
*338 FILLER_18_121
*339 FILLER_18_133
*340 FILLER_18_139
*341 FILLER_18_141
*342 FILLER_18_15
*343 FILLER_18_153
*344 FILLER_18_165
*345 FILLER_18_177
*346 FILLER_18_189
*347 FILLER_18_195
*348 FILLER_18_197
*349 FILLER_18_209
*350 FILLER_18_221
*351 FILLER_18_233
*352 FILLER_18_245
*353 FILLER_18_251
*354 FILLER_18_253
*355 FILLER_18_265
*356 FILLER_18_27
*357 FILLER_18_277
*358 FILLER_18_289
*359 FILLER_18_29
*360 FILLER_18_297
*361 FILLER_18_3
*362 FILLER_18_41
*363 FILLER_18_53
*364 FILLER_18_65
*365 FILLER_18_77
*366 FILLER_18_83
*367 FILLER_18_85
*368 FILLER_18_97
*369 FILLER_19_105
*370 FILLER_19_111
*371 FILLER_19_113
*372 FILLER_19_125
*373 FILLER_19_137
*374 FILLER_19_149
*375 FILLER_19_15
*376 FILLER_19_161
*377 FILLER_19_167
*378 FILLER_19_169
*379 FILLER_19_181
*380 FILLER_19_193
*381 FILLER_19_205
*382 FILLER_19_217
*383 FILLER_19_223
*384 FILLER_19_225
*385 FILLER_19_237
*386 FILLER_19_249
*387 FILLER_19_261
*388 FILLER_19_27
*389 FILLER_19_273
*390 FILLER_19_279
*391 FILLER_19_281
*392 FILLER_19_293
*393 FILLER_19_3
*394 FILLER_19_39
*395 FILLER_19_51
*396 FILLER_19_55
*397 FILLER_19_57
*398 FILLER_19_69
*399 FILLER_19_81
*400 FILLER_19_93
*401 FILLER_1_105
*402 FILLER_1_111
*403 FILLER_1_113
*404 FILLER_1_125
*405 FILLER_1_137
*406 FILLER_1_149
*407 FILLER_1_161
*408 FILLER_1_167
*409 FILLER_1_169
*410 FILLER_1_181
*411 FILLER_1_19
*412 FILLER_1_193
*413 FILLER_1_205
*414 FILLER_1_217
*415 FILLER_1_223
*416 FILLER_1_225
*417 FILLER_1_237
*418 FILLER_1_249
*419 FILLER_1_261
*420 FILLER_1_273
*421 FILLER_1_279
*422 FILLER_1_281
*423 FILLER_1_293
*424 FILLER_1_31
*425 FILLER_1_43
*426 FILLER_1_55
*427 FILLER_1_57
*428 FILLER_1_69
*429 FILLER_1_81
*430 FILLER_1_93
*431 FILLER_20_109
*432 FILLER_20_121
*433 FILLER_20_133
*434 FILLER_20_139
*435 FILLER_20_141
*436 FILLER_20_15
*437 FILLER_20_153
*438 FILLER_20_165
*439 FILLER_20_177
*440 FILLER_20_189
*441 FILLER_20_195
*442 FILLER_20_197
*443 FILLER_20_209
*444 FILLER_20_221
*445 FILLER_20_233
*446 FILLER_20_245
*447 FILLER_20_251
*448 FILLER_20_253
*449 FILLER_20_265
*450 FILLER_20_27
*451 FILLER_20_277
*452 FILLER_20_289
*453 FILLER_20_29
*454 FILLER_20_297
*455 FILLER_20_3
*456 FILLER_20_41
*457 FILLER_20_53
*458 FILLER_20_65
*459 FILLER_20_77
*460 FILLER_20_83
*461 FILLER_20_85
*462 FILLER_20_97
*463 FILLER_21_105
*464 FILLER_21_111
*465 FILLER_21_113
*466 FILLER_21_125
*467 FILLER_21_137
*468 FILLER_21_149
*469 FILLER_21_15
*470 FILLER_21_161
*471 FILLER_21_167
*472 FILLER_21_169
*473 FILLER_21_181
*474 FILLER_21_193
*475 FILLER_21_205
*476 FILLER_21_217
*477 FILLER_21_223
*478 FILLER_21_225
*479 FILLER_21_237
*480 FILLER_21_249
*481 FILLER_21_261
*482 FILLER_21_27
*483 FILLER_21_273
*484 FILLER_21_279
*485 FILLER_21_281
*486 FILLER_21_293
*487 FILLER_21_3
*488 FILLER_21_39
*489 FILLER_21_51
*490 FILLER_21_55
*491 FILLER_21_57
*492 FILLER_21_69
*493 FILLER_21_81
*494 FILLER_21_93
*495 FILLER_22_109
*496 FILLER_22_121
*497 FILLER_22_133
*498 FILLER_22_139
*499 FILLER_22_141
*500 FILLER_22_15
*501 FILLER_22_153
*502 FILLER_22_165
*503 FILLER_22_177
*504 FILLER_22_189
*505 FILLER_22_195
*506 FILLER_22_197
*507 FILLER_22_209
*508 FILLER_22_221
*509 FILLER_22_233
*510 FILLER_22_245
*511 FILLER_22_251
*512 FILLER_22_253
*513 FILLER_22_265
*514 FILLER_22_27
*515 FILLER_22_277
*516 FILLER_22_289
*517 FILLER_22_29
*518 FILLER_22_297
*519 FILLER_22_3
*520 FILLER_22_41
*521 FILLER_22_53
*522 FILLER_22_65
*523 FILLER_22_77
*524 FILLER_22_83
*525 FILLER_22_85
*526 FILLER_22_97
*527 FILLER_23_105
*528 FILLER_23_111
*529 FILLER_23_113
*530 FILLER_23_125
*531 FILLER_23_137
*532 FILLER_23_149
*533 FILLER_23_15
*534 FILLER_23_161
*535 FILLER_23_167
*536 FILLER_23_169
*537 FILLER_23_181
*538 FILLER_23_193
*539 FILLER_23_205
*540 FILLER_23_217
*541 FILLER_23_223
*542 FILLER_23_225
*543 FILLER_23_237
*544 FILLER_23_249
*545 FILLER_23_261
*546 FILLER_23_27
*547 FILLER_23_273
*548 FILLER_23_279
*549 FILLER_23_281
*550 FILLER_23_293
*551 FILLER_23_3
*552 FILLER_23_39
*553 FILLER_23_51
*554 FILLER_23_55
*555 FILLER_23_57
*556 FILLER_23_69
*557 FILLER_23_81
*558 FILLER_23_93
*559 FILLER_24_109
*560 FILLER_24_121
*561 FILLER_24_13
*562 FILLER_24_133
*563 FILLER_24_139
*564 FILLER_24_141
*565 FILLER_24_153
*566 FILLER_24_165
*567 FILLER_24_177
*568 FILLER_24_189
*569 FILLER_24_195
*570 FILLER_24_197
*571 FILLER_24_209
*572 FILLER_24_221
*573 FILLER_24_233
*574 FILLER_24_245
*575 FILLER_24_25
*576 FILLER_24_251
*577 FILLER_24_253
*578 FILLER_24_265
*579 FILLER_24_277
*580 FILLER_24_289
*581 FILLER_24_29
*582 FILLER_24_297
*583 FILLER_24_3
*584 FILLER_24_41
*585 FILLER_24_53
*586 FILLER_24_65
*587 FILLER_24_77
*588 FILLER_24_83
*589 FILLER_24_85
*590 FILLER_24_9
*591 FILLER_24_97
*592 FILLER_25_105
*593 FILLER_25_111
*594 FILLER_25_113
*595 FILLER_25_125
*596 FILLER_25_137
*597 FILLER_25_149
*598 FILLER_25_15
*599 FILLER_25_161
*600 FILLER_25_167
*601 FILLER_25_169
*602 FILLER_25_181
*603 FILLER_25_193
*604 FILLER_25_205
*605 FILLER_25_217
*606 FILLER_25_223
*607 FILLER_25_225
*608 FILLER_25_237
*609 FILLER_25_249
*610 FILLER_25_261
*611 FILLER_25_27
*612 FILLER_25_273
*613 FILLER_25_279
*614 FILLER_25_281
*615 FILLER_25_293
*616 FILLER_25_3
*617 FILLER_25_39
*618 FILLER_25_51
*619 FILLER_25_55
*620 FILLER_25_57
*621 FILLER_25_69
*622 FILLER_25_81
*623 FILLER_25_93
*624 FILLER_26_109
*625 FILLER_26_121
*626 FILLER_26_133
*627 FILLER_26_139
*628 FILLER_26_141
*629 FILLER_26_153
*630 FILLER_26_165
*631 FILLER_26_177
*632 FILLER_26_189
*633 FILLER_26_195
*634 FILLER_26_197
*635 FILLER_26_209
*636 FILLER_26_221
*637 FILLER_26_233
*638 FILLER_26_24
*639 FILLER_26_245
*640 FILLER_26_251
*641 FILLER_26_253
*642 FILLER_26_265
*643 FILLER_26_277
*644 FILLER_26_289
*645 FILLER_26_29
*646 FILLER_26_297
*647 FILLER_26_3
*648 FILLER_26_41
*649 FILLER_26_53
*650 FILLER_26_65
*651 FILLER_26_7
*652 FILLER_26_77
*653 FILLER_26_83
*654 FILLER_26_85
*655 FILLER_26_97
*656 FILLER_27_105
*657 FILLER_27_111
*658 FILLER_27_113
*659 FILLER_27_125
*660 FILLER_27_13
*661 FILLER_27_137
*662 FILLER_27_149
*663 FILLER_27_161
*664 FILLER_27_167
*665 FILLER_27_169
*666 FILLER_27_181
*667 FILLER_27_193
*668 FILLER_27_205
*669 FILLER_27_21
*670 FILLER_27_217
*671 FILLER_27_223
*672 FILLER_27_225
*673 FILLER_27_237
*674 FILLER_27_249
*675 FILLER_27_261
*676 FILLER_27_273
*677 FILLER_27_279
*678 FILLER_27_281
*679 FILLER_27_293
*680 FILLER_27_3
*681 FILLER_27_33
*682 FILLER_27_45
*683 FILLER_27_53
*684 FILLER_27_57
*685 FILLER_27_69
*686 FILLER_27_81
*687 FILLER_27_93
*688 FILLER_28_109
*689 FILLER_28_121
*690 FILLER_28_133
*691 FILLER_28_139
*692 FILLER_28_141
*693 FILLER_28_15
*694 FILLER_28_153
*695 FILLER_28_165
*696 FILLER_28_177
*697 FILLER_28_189
*698 FILLER_28_195
*699 FILLER_28_197
*700 FILLER_28_209
*701 FILLER_28_221
*702 FILLER_28_233
*703 FILLER_28_245
*704 FILLER_28_251
*705 FILLER_28_253
*706 FILLER_28_265
*707 FILLER_28_27
*708 FILLER_28_277
*709 FILLER_28_289
*710 FILLER_28_29
*711 FILLER_28_297
*712 FILLER_28_3
*713 FILLER_28_41
*714 FILLER_28_53
*715 FILLER_28_65
*716 FILLER_28_77
*717 FILLER_28_83
*718 FILLER_28_85
*719 FILLER_28_97
*720 FILLER_29_105
*721 FILLER_29_11
*722 FILLER_29_111
*723 FILLER_29_113
*724 FILLER_29_125
*725 FILLER_29_137
*726 FILLER_29_149
*727 FILLER_29_16
*728 FILLER_29_161
*729 FILLER_29_167
*730 FILLER_29_169
*731 FILLER_29_181
*732 FILLER_29_193
*733 FILLER_29_205
*734 FILLER_29_217
*735 FILLER_29_223
*736 FILLER_29_225
*737 FILLER_29_237
*738 FILLER_29_249
*739 FILLER_29_261
*740 FILLER_29_273
*741 FILLER_29_279
*742 FILLER_29_28
*743 FILLER_29_281
*744 FILLER_29_293
*745 FILLER_29_3
*746 FILLER_29_40
*747 FILLER_29_52
*748 FILLER_29_57
*749 FILLER_29_69
*750 FILLER_29_81
*751 FILLER_29_93
*752 FILLER_2_109
*753 FILLER_2_121
*754 FILLER_2_133
*755 FILLER_2_139
*756 FILLER_2_141
*757 FILLER_2_15
*758 FILLER_2_153
*759 FILLER_2_165
*760 FILLER_2_177
*761 FILLER_2_189
*762 FILLER_2_195
*763 FILLER_2_197
*764 FILLER_2_209
*765 FILLER_2_221
*766 FILLER_2_233
*767 FILLER_2_245
*768 FILLER_2_251
*769 FILLER_2_253
*770 FILLER_2_265
*771 FILLER_2_27
*772 FILLER_2_277
*773 FILLER_2_289
*774 FILLER_2_29
*775 FILLER_2_297
*776 FILLER_2_3
*777 FILLER_2_41
*778 FILLER_2_53
*779 FILLER_2_65
*780 FILLER_2_77
*781 FILLER_2_83
*782 FILLER_2_85
*783 FILLER_2_97
*784 FILLER_30_109
*785 FILLER_30_121
*786 FILLER_30_133
*787 FILLER_30_139
*788 FILLER_30_141
*789 FILLER_30_153
*790 FILLER_30_165
*791 FILLER_30_177
*792 FILLER_30_189
*793 FILLER_30_195
*794 FILLER_30_197
*795 FILLER_30_209
*796 FILLER_30_221
*797 FILLER_30_233
*798 FILLER_30_24
*799 FILLER_30_245
*800 FILLER_30_251
*801 FILLER_30_253
*802 FILLER_30_265
*803 FILLER_30_277
*804 FILLER_30_289
*805 FILLER_30_29
*806 FILLER_30_297
*807 FILLER_30_3
*808 FILLER_30_41
*809 FILLER_30_53
*810 FILLER_30_65
*811 FILLER_30_7
*812 FILLER_30_77
*813 FILLER_30_83
*814 FILLER_30_85
*815 FILLER_30_97
*816 FILLER_31_105
*817 FILLER_31_11
*818 FILLER_31_111
*819 FILLER_31_113
*820 FILLER_31_125
*821 FILLER_31_137
*822 FILLER_31_149
*823 FILLER_31_16
*824 FILLER_31_161
*825 FILLER_31_167
*826 FILLER_31_169
*827 FILLER_31_181
*828 FILLER_31_193
*829 FILLER_31_205
*830 FILLER_31_217
*831 FILLER_31_223
*832 FILLER_31_225
*833 FILLER_31_237
*834 FILLER_31_249
*835 FILLER_31_261
*836 FILLER_31_273
*837 FILLER_31_279
*838 FILLER_31_28
*839 FILLER_31_281
*840 FILLER_31_293
*841 FILLER_31_3
*842 FILLER_31_40
*843 FILLER_31_52
*844 FILLER_31_57
*845 FILLER_31_69
*846 FILLER_31_81
*847 FILLER_31_93
*848 FILLER_32_109
*849 FILLER_32_121
*850 FILLER_32_133
*851 FILLER_32_139
*852 FILLER_32_141
*853 FILLER_32_15
*854 FILLER_32_153
*855 FILLER_32_165
*856 FILLER_32_177
*857 FILLER_32_189
*858 FILLER_32_195
*859 FILLER_32_197
*860 FILLER_32_209
*861 FILLER_32_221
*862 FILLER_32_233
*863 FILLER_32_245
*864 FILLER_32_251
*865 FILLER_32_253
*866 FILLER_32_265
*867 FILLER_32_27
*868 FILLER_32_277
*869 FILLER_32_289
*870 FILLER_32_29
*871 FILLER_32_297
*872 FILLER_32_3
*873 FILLER_32_41
*874 FILLER_32_53
*875 FILLER_32_65
*876 FILLER_32_77
*877 FILLER_32_83
*878 FILLER_32_85
*879 FILLER_32_97
*880 FILLER_33_105
*881 FILLER_33_111
*882 FILLER_33_113
*883 FILLER_33_125
*884 FILLER_33_137
*885 FILLER_33_149
*886 FILLER_33_161
*887 FILLER_33_167
*888 FILLER_33_169
*889 FILLER_33_181
*890 FILLER_33_193
*891 FILLER_33_205
*892 FILLER_33_217
*893 FILLER_33_223
*894 FILLER_33_225
*895 FILLER_33_237
*896 FILLER_33_249
*897 FILLER_33_261
*898 FILLER_33_273
*899 FILLER_33_279
*900 FILLER_33_281
*901 FILLER_33_293
*902 FILLER_33_3
*903 FILLER_33_31
*904 FILLER_33_43
*905 FILLER_33_55
*906 FILLER_33_57
*907 FILLER_33_69
*908 FILLER_33_81
*909 FILLER_33_93
*910 FILLER_34_109
*911 FILLER_34_11
*912 FILLER_34_121
*913 FILLER_34_133
*914 FILLER_34_139
*915 FILLER_34_141
*916 FILLER_34_153
*917 FILLER_34_165
*918 FILLER_34_177
*919 FILLER_34_18
*920 FILLER_34_189
*921 FILLER_34_195
*922 FILLER_34_197
*923 FILLER_34_209
*924 FILLER_34_221
*925 FILLER_34_233
*926 FILLER_34_245
*927 FILLER_34_251
*928 FILLER_34_253
*929 FILLER_34_26
*930 FILLER_34_265
*931 FILLER_34_277
*932 FILLER_34_289
*933 FILLER_34_29
*934 FILLER_34_297
*935 FILLER_34_3
*936 FILLER_34_41
*937 FILLER_34_53
*938 FILLER_34_65
*939 FILLER_34_77
*940 FILLER_34_83
*941 FILLER_34_85
*942 FILLER_34_97
*943 FILLER_35_105
*944 FILLER_35_111
*945 FILLER_35_113
*946 FILLER_35_125
*947 FILLER_35_137
*948 FILLER_35_149
*949 FILLER_35_15
*950 FILLER_35_161
*951 FILLER_35_167
*952 FILLER_35_169
*953 FILLER_35_181
*954 FILLER_35_193
*955 FILLER_35_205
*956 FILLER_35_217
*957 FILLER_35_223
*958 FILLER_35_225
*959 FILLER_35_237
*960 FILLER_35_249
*961 FILLER_35_261
*962 FILLER_35_27
*963 FILLER_35_273
*964 FILLER_35_279
*965 FILLER_35_281
*966 FILLER_35_293
*967 FILLER_35_3
*968 FILLER_35_39
*969 FILLER_35_51
*970 FILLER_35_55
*971 FILLER_35_57
*972 FILLER_35_69
*973 FILLER_35_81
*974 FILLER_35_93
*975 FILLER_36_109
*976 FILLER_36_11
*977 FILLER_36_121
*978 FILLER_36_133
*979 FILLER_36_139
*980 FILLER_36_141
*981 FILLER_36_153
*982 FILLER_36_165
*983 FILLER_36_177
*984 FILLER_36_18
*985 FILLER_36_189
*986 FILLER_36_195
*987 FILLER_36_197
*988 FILLER_36_209
*989 FILLER_36_221
*990 FILLER_36_233
*991 FILLER_36_245
*992 FILLER_36_251
*993 FILLER_36_253
*994 FILLER_36_26
*995 FILLER_36_265
*996 FILLER_36_277
*997 FILLER_36_289
*998 FILLER_36_29
*999 FILLER_36_297
*1000 FILLER_36_3
*1001 FILLER_36_41
*1002 FILLER_36_53
*1003 FILLER_36_65
*1004 FILLER_36_77
*1005 FILLER_36_83
*1006 FILLER_36_85
*1007 FILLER_36_97
*1008 FILLER_37_105
*1009 FILLER_37_111
*1010 FILLER_37_113
*1011 FILLER_37_125
*1012 FILLER_37_137
*1013 FILLER_37_149
*1014 FILLER_37_15
*1015 FILLER_37_161
*1016 FILLER_37_167
*1017 FILLER_37_169
*1018 FILLER_37_181
*1019 FILLER_37_193
*1020 FILLER_37_205
*1021 FILLER_37_217
*1022 FILLER_37_223
*1023 FILLER_37_225
*1024 FILLER_37_237
*1025 FILLER_37_249
*1026 FILLER_37_261
*1027 FILLER_37_27
*1028 FILLER_37_273
*1029 FILLER_37_279
*1030 FILLER_37_281
*1031 FILLER_37_293
*1032 FILLER_37_3
*1033 FILLER_37_39
*1034 FILLER_37_51
*1035 FILLER_37_55
*1036 FILLER_37_57
*1037 FILLER_37_69
*1038 FILLER_37_81
*1039 FILLER_37_93
*1040 FILLER_38_109
*1041 FILLER_38_121
*1042 FILLER_38_133
*1043 FILLER_38_139
*1044 FILLER_38_141
*1045 FILLER_38_15
*1046 FILLER_38_153
*1047 FILLER_38_165
*1048 FILLER_38_177
*1049 FILLER_38_189
*1050 FILLER_38_195
*1051 FILLER_38_197
*1052 FILLER_38_209
*1053 FILLER_38_221
*1054 FILLER_38_233
*1055 FILLER_38_245
*1056 FILLER_38_251
*1057 FILLER_38_253
*1058 FILLER_38_265
*1059 FILLER_38_27
*1060 FILLER_38_277
*1061 FILLER_38_289
*1062 FILLER_38_29
*1063 FILLER_38_297
*1064 FILLER_38_3
*1065 FILLER_38_41
*1066 FILLER_38_53
*1067 FILLER_38_65
*1068 FILLER_38_77
*1069 FILLER_38_83
*1070 FILLER_38_85
*1071 FILLER_38_97
*1072 FILLER_39_105
*1073 FILLER_39_11
*1074 FILLER_39_111
*1075 FILLER_39_113
*1076 FILLER_39_125
*1077 FILLER_39_137
*1078 FILLER_39_149
*1079 FILLER_39_161
*1080 FILLER_39_167
*1081 FILLER_39_169
*1082 FILLER_39_181
*1083 FILLER_39_193
*1084 FILLER_39_205
*1085 FILLER_39_217
*1086 FILLER_39_223
*1087 FILLER_39_225
*1088 FILLER_39_237
*1089 FILLER_39_249
*1090 FILLER_39_261
*1091 FILLER_39_273
*1092 FILLER_39_279
*1093 FILLER_39_281
*1094 FILLER_39_29
*1095 FILLER_39_293
*1096 FILLER_39_3
*1097 FILLER_39_41
*1098 FILLER_39_53
*1099 FILLER_39_57
*1100 FILLER_39_69
*1101 FILLER_39_81
*1102 FILLER_39_93
*1103 FILLER_3_105
*1104 FILLER_3_111
*1105 FILLER_3_113
*1106 FILLER_3_125
*1107 FILLER_3_137
*1108 FILLER_3_149
*1109 FILLER_3_15
*1110 FILLER_3_161
*1111 FILLER_3_167
*1112 FILLER_3_169
*1113 FILLER_3_181
*1114 FILLER_3_193
*1115 FILLER_3_205
*1116 FILLER_3_217
*1117 FILLER_3_223
*1118 FILLER_3_225
*1119 FILLER_3_237
*1120 FILLER_3_249
*1121 FILLER_3_261
*1122 FILLER_3_27
*1123 FILLER_3_273
*1124 FILLER_3_279
*1125 FILLER_3_281
*1126 FILLER_3_293
*1127 FILLER_3_3
*1128 FILLER_3_39
*1129 FILLER_3_51
*1130 FILLER_3_55
*1131 FILLER_3_57
*1132 FILLER_3_69
*1133 FILLER_3_81
*1134 FILLER_3_93
*1135 FILLER_40_109
*1136 FILLER_40_11
*1137 FILLER_40_121
*1138 FILLER_40_133
*1139 FILLER_40_139
*1140 FILLER_40_141
*1141 FILLER_40_153
*1142 FILLER_40_165
*1143 FILLER_40_17
*1144 FILLER_40_177
*1145 FILLER_40_189
*1146 FILLER_40_195
*1147 FILLER_40_197
*1148 FILLER_40_209
*1149 FILLER_40_221
*1150 FILLER_40_233
*1151 FILLER_40_245
*1152 FILLER_40_25
*1153 FILLER_40_251
*1154 FILLER_40_253
*1155 FILLER_40_265
*1156 FILLER_40_277
*1157 FILLER_40_289
*1158 FILLER_40_29
*1159 FILLER_40_297
*1160 FILLER_40_3
*1161 FILLER_40_41
*1162 FILLER_40_53
*1163 FILLER_40_65
*1164 FILLER_40_77
*1165 FILLER_40_83
*1166 FILLER_40_85
*1167 FILLER_40_97
*1168 FILLER_41_105
*1169 FILLER_41_11
*1170 FILLER_41_111
*1171 FILLER_41_113
*1172 FILLER_41_125
*1173 FILLER_41_137
*1174 FILLER_41_149
*1175 FILLER_41_16
*1176 FILLER_41_161
*1177 FILLER_41_167
*1178 FILLER_41_169
*1179 FILLER_41_181
*1180 FILLER_41_193
*1181 FILLER_41_205
*1182 FILLER_41_217
*1183 FILLER_41_223
*1184 FILLER_41_225
*1185 FILLER_41_237
*1186 FILLER_41_249
*1187 FILLER_41_261
*1188 FILLER_41_273
*1189 FILLER_41_279
*1190 FILLER_41_28
*1191 FILLER_41_281
*1192 FILLER_41_293
*1193 FILLER_41_3
*1194 FILLER_41_40
*1195 FILLER_41_52
*1196 FILLER_41_57
*1197 FILLER_41_69
*1198 FILLER_41_81
*1199 FILLER_41_93
*1200 FILLER_42_109
*1201 FILLER_42_121
*1202 FILLER_42_133
*1203 FILLER_42_139
*1204 FILLER_42_141
*1205 FILLER_42_153
*1206 FILLER_42_165
*1207 FILLER_42_177
*1208 FILLER_42_189
*1209 FILLER_42_195
*1210 FILLER_42_197
*1211 FILLER_42_209
*1212 FILLER_42_221
*1213 FILLER_42_233
*1214 FILLER_42_24
*1215 FILLER_42_245
*1216 FILLER_42_251
*1217 FILLER_42_253
*1218 FILLER_42_265
*1219 FILLER_42_277
*1220 FILLER_42_289
*1221 FILLER_42_29
*1222 FILLER_42_297
*1223 FILLER_42_3
*1224 FILLER_42_41
*1225 FILLER_42_53
*1226 FILLER_42_65
*1227 FILLER_42_7
*1228 FILLER_42_77
*1229 FILLER_42_83
*1230 FILLER_42_85
*1231 FILLER_42_97
*1232 FILLER_43_105
*1233 FILLER_43_111
*1234 FILLER_43_113
*1235 FILLER_43_125
*1236 FILLER_43_137
*1237 FILLER_43_149
*1238 FILLER_43_15
*1239 FILLER_43_161
*1240 FILLER_43_167
*1241 FILLER_43_169
*1242 FILLER_43_181
*1243 FILLER_43_193
*1244 FILLER_43_205
*1245 FILLER_43_217
*1246 FILLER_43_223
*1247 FILLER_43_225
*1248 FILLER_43_23
*1249 FILLER_43_237
*1250 FILLER_43_249
*1251 FILLER_43_261
*1252 FILLER_43_273
*1253 FILLER_43_279
*1254 FILLER_43_281
*1255 FILLER_43_293
*1256 FILLER_43_3
*1257 FILLER_43_35
*1258 FILLER_43_47
*1259 FILLER_43_55
*1260 FILLER_43_57
*1261 FILLER_43_69
*1262 FILLER_43_81
*1263 FILLER_43_93
*1264 FILLER_44_109
*1265 FILLER_44_11
*1266 FILLER_44_121
*1267 FILLER_44_133
*1268 FILLER_44_139
*1269 FILLER_44_141
*1270 FILLER_44_153
*1271 FILLER_44_16
*1272 FILLER_44_165
*1273 FILLER_44_177
*1274 FILLER_44_189
*1275 FILLER_44_195
*1276 FILLER_44_197
*1277 FILLER_44_209
*1278 FILLER_44_221
*1279 FILLER_44_233
*1280 FILLER_44_245
*1281 FILLER_44_251
*1282 FILLER_44_253
*1283 FILLER_44_265
*1284 FILLER_44_277
*1285 FILLER_44_289
*1286 FILLER_44_29
*1287 FILLER_44_297
*1288 FILLER_44_3
*1289 FILLER_44_41
*1290 FILLER_44_53
*1291 FILLER_44_65
*1292 FILLER_44_77
*1293 FILLER_44_83
*1294 FILLER_44_85
*1295 FILLER_44_97
*1296 FILLER_45_105
*1297 FILLER_45_11
*1298 FILLER_45_111
*1299 FILLER_45_113
*1300 FILLER_45_125
*1301 FILLER_45_137
*1302 FILLER_45_149
*1303 FILLER_45_161
*1304 FILLER_45_167
*1305 FILLER_45_169
*1306 FILLER_45_181
*1307 FILLER_45_193
*1308 FILLER_45_205
*1309 FILLER_45_217
*1310 FILLER_45_223
*1311 FILLER_45_225
*1312 FILLER_45_237
*1313 FILLER_45_249
*1314 FILLER_45_261
*1315 FILLER_45_273
*1316 FILLER_45_279
*1317 FILLER_45_281
*1318 FILLER_45_29
*1319 FILLER_45_293
*1320 FILLER_45_3
*1321 FILLER_45_41
*1322 FILLER_45_53
*1323 FILLER_45_57
*1324 FILLER_45_69
*1325 FILLER_45_81
*1326 FILLER_45_93
*1327 FILLER_46_109
*1328 FILLER_46_11
*1329 FILLER_46_121
*1330 FILLER_46_133
*1331 FILLER_46_139
*1332 FILLER_46_141
*1333 FILLER_46_153
*1334 FILLER_46_16
*1335 FILLER_46_165
*1336 FILLER_46_177
*1337 FILLER_46_189
*1338 FILLER_46_195
*1339 FILLER_46_197
*1340 FILLER_46_209
*1341 FILLER_46_221
*1342 FILLER_46_233
*1343 FILLER_46_245
*1344 FILLER_46_251
*1345 FILLER_46_253
*1346 FILLER_46_265
*1347 FILLER_46_277
*1348 FILLER_46_289
*1349 FILLER_46_29
*1350 FILLER_46_297
*1351 FILLER_46_3
*1352 FILLER_46_41
*1353 FILLER_46_53
*1354 FILLER_46_65
*1355 FILLER_46_77
*1356 FILLER_46_83
*1357 FILLER_46_85
*1358 FILLER_46_97
*1359 FILLER_47_105
*1360 FILLER_47_11
*1361 FILLER_47_111
*1362 FILLER_47_113
*1363 FILLER_47_125
*1364 FILLER_47_137
*1365 FILLER_47_149
*1366 FILLER_47_16
*1367 FILLER_47_161
*1368 FILLER_47_167
*1369 FILLER_47_169
*1370 FILLER_47_181
*1371 FILLER_47_193
*1372 FILLER_47_205
*1373 FILLER_47_217
*1374 FILLER_47_223
*1375 FILLER_47_225
*1376 FILLER_47_237
*1377 FILLER_47_249
*1378 FILLER_47_261
*1379 FILLER_47_273
*1380 FILLER_47_279
*1381 FILLER_47_281
*1382 FILLER_47_293
*1383 FILLER_47_3
*1384 FILLER_47_36
*1385 FILLER_47_48
*1386 FILLER_47_57
*1387 FILLER_47_69
*1388 FILLER_47_81
*1389 FILLER_47_93
*1390 FILLER_48_109
*1391 FILLER_48_121
*1392 FILLER_48_133
*1393 FILLER_48_139
*1394 FILLER_48_141
*1395 FILLER_48_15
*1396 FILLER_48_153
*1397 FILLER_48_165
*1398 FILLER_48_177
*1399 FILLER_48_189
*1400 FILLER_48_195
*1401 FILLER_48_197
*1402 FILLER_48_209
*1403 FILLER_48_221
*1404 FILLER_48_233
*1405 FILLER_48_245
*1406 FILLER_48_251
*1407 FILLER_48_253
*1408 FILLER_48_265
*1409 FILLER_48_27
*1410 FILLER_48_277
*1411 FILLER_48_289
*1412 FILLER_48_29
*1413 FILLER_48_297
*1414 FILLER_48_3
*1415 FILLER_48_41
*1416 FILLER_48_53
*1417 FILLER_48_65
*1418 FILLER_48_77
*1419 FILLER_48_83
*1420 FILLER_48_85
*1421 FILLER_48_97
*1422 FILLER_49_105
*1423 FILLER_49_11
*1424 FILLER_49_111
*1425 FILLER_49_113
*1426 FILLER_49_125
*1427 FILLER_49_137
*1428 FILLER_49_149
*1429 FILLER_49_16
*1430 FILLER_49_161
*1431 FILLER_49_167
*1432 FILLER_49_169
*1433 FILLER_49_181
*1434 FILLER_49_193
*1435 FILLER_49_205
*1436 FILLER_49_217
*1437 FILLER_49_223
*1438 FILLER_49_225
*1439 FILLER_49_237
*1440 FILLER_49_249
*1441 FILLER_49_261
*1442 FILLER_49_273
*1443 FILLER_49_279
*1444 FILLER_49_281
*1445 FILLER_49_293
*1446 FILLER_49_3
*1447 FILLER_49_36
*1448 FILLER_49_48
*1449 FILLER_49_57
*1450 FILLER_49_69
*1451 FILLER_49_81
*1452 FILLER_49_93
*1453 FILLER_4_109
*1454 FILLER_4_121
*1455 FILLER_4_133
*1456 FILLER_4_139
*1457 FILLER_4_141
*1458 FILLER_4_15
*1459 FILLER_4_153
*1460 FILLER_4_165
*1461 FILLER_4_177
*1462 FILLER_4_189
*1463 FILLER_4_195
*1464 FILLER_4_197
*1465 FILLER_4_209
*1466 FILLER_4_221
*1467 FILLER_4_233
*1468 FILLER_4_245
*1469 FILLER_4_251
*1470 FILLER_4_253
*1471 FILLER_4_265
*1472 FILLER_4_27
*1473 FILLER_4_277
*1474 FILLER_4_289
*1475 FILLER_4_29
*1476 FILLER_4_297
*1477 FILLER_4_3
*1478 FILLER_4_41
*1479 FILLER_4_53
*1480 FILLER_4_65
*1481 FILLER_4_77
*1482 FILLER_4_83
*1483 FILLER_4_85
*1484 FILLER_4_97
*1485 FILLER_50_109
*1486 FILLER_50_11
*1487 FILLER_50_121
*1488 FILLER_50_133
*1489 FILLER_50_139
*1490 FILLER_50_141
*1491 FILLER_50_153
*1492 FILLER_50_165
*1493 FILLER_50_177
*1494 FILLER_50_18
*1495 FILLER_50_189
*1496 FILLER_50_195
*1497 FILLER_50_197
*1498 FILLER_50_209
*1499 FILLER_50_221
*1500 FILLER_50_233
*1501 FILLER_50_245
*1502 FILLER_50_251
*1503 FILLER_50_253
*1504 FILLER_50_26
*1505 FILLER_50_265
*1506 FILLER_50_277
*1507 FILLER_50_289
*1508 FILLER_50_297
*1509 FILLER_50_3
*1510 FILLER_50_45
*1511 FILLER_50_57
*1512 FILLER_50_69
*1513 FILLER_50_81
*1514 FILLER_50_85
*1515 FILLER_50_97
*1516 FILLER_51_105
*1517 FILLER_51_11
*1518 FILLER_51_111
*1519 FILLER_51_113
*1520 FILLER_51_125
*1521 FILLER_51_137
*1522 FILLER_51_149
*1523 FILLER_51_161
*1524 FILLER_51_167
*1525 FILLER_51_169
*1526 FILLER_51_18
*1527 FILLER_51_181
*1528 FILLER_51_193
*1529 FILLER_51_205
*1530 FILLER_51_217
*1531 FILLER_51_223
*1532 FILLER_51_225
*1533 FILLER_51_237
*1534 FILLER_51_24
*1535 FILLER_51_249
*1536 FILLER_51_261
*1537 FILLER_51_273
*1538 FILLER_51_279
*1539 FILLER_51_281
*1540 FILLER_51_293
*1541 FILLER_51_3
*1542 FILLER_51_41
*1543 FILLER_51_53
*1544 FILLER_51_57
*1545 FILLER_51_69
*1546 FILLER_51_81
*1547 FILLER_51_93
*1548 FILLER_52_109
*1549 FILLER_52_11
*1550 FILLER_52_121
*1551 FILLER_52_133
*1552 FILLER_52_139
*1553 FILLER_52_141
*1554 FILLER_52_153
*1555 FILLER_52_165
*1556 FILLER_52_177
*1557 FILLER_52_18
*1558 FILLER_52_189
*1559 FILLER_52_195
*1560 FILLER_52_197
*1561 FILLER_52_209
*1562 FILLER_52_221
*1563 FILLER_52_233
*1564 FILLER_52_245
*1565 FILLER_52_251
*1566 FILLER_52_253
*1567 FILLER_52_26
*1568 FILLER_52_265
*1569 FILLER_52_277
*1570 FILLER_52_289
*1571 FILLER_52_297
*1572 FILLER_52_3
*1573 FILLER_52_45
*1574 FILLER_52_57
*1575 FILLER_52_69
*1576 FILLER_52_81
*1577 FILLER_52_85
*1578 FILLER_52_97
*1579 FILLER_53_105
*1580 FILLER_53_11