*SPEF "ieee 1481-1999"
*DESIGN "user_module_348242239268323922"
*DATE "11:11:11 Fri 11 11, 1111"
*VENDOR "OpenRCX"
*PROGRAM "Parallel Extraction"
*VERSION "1.0"
*DESIGN_FLOW "NAME_SCOPE LOCAL" "PIN_CAP NONE"
*DIVIDER /
*DELIMITER :
*BUS_DELIMITER []
*T_UNIT 1 NS
*C_UNIT 1 PF
*R_UNIT 1 OHM
*L_UNIT 1 HENRY

*NAME_MAP
*1 io_in[0]
*2 io_in[1]
*3 io_in[2]
*4 io_in[3]
*5 io_in[4]
*6 io_in[5]
*7 io_in[6]
*8 io_in[7]
*9 io_out[0]
*10 io_out[1]
*11 io_out[2]
*12 io_out[3]
*13 io_out[4]
*14 io_out[5]
*15 io_out[6]
*16 io_out[7]
*19 _007_
*20 _008_
*21 _009_
*22 _010_
*23 _011_
*24 _012_
*25 _013_
*26 _014_
*27 _015_
*28 _016_
*29 _017_
*30 _018_
*31 _019_
*32 _020_
*33 _021_
*34 _022_
*35 _023_
*36 _024_
*37 _025_
*38 _026_
*39 _027_
*40 _028_
*41 _029_
*42 _030_
*43 _031_
*44 _032_
*45 _033_
*46 _034_
*47 _035_
*48 _036_
*49 _037_
*50 _038_
*51 _039_
*52 _040_
*53 _041_
*54 _042_
*55 _043_
*56 _044_
*57 clknet_0__028_
*58 clknet_0_io_in[0]
*59 clknet_1_0__leaf__028_
*60 clknet_1_0__leaf_io_in[0]
*61 clknet_1_1__leaf__028_
*62 clknet_1_1__leaf_io_in[0]
*63 flipflop1\.d
*64 flipflop1\.q
*65 flipflop10\.clk
*66 flipflop10\.d
*67 flipflop10\.q
*68 flipflop11\.d
*69 flipflop11\.q
*70 flipflop12\.d
*71 flipflop12\.q
*72 flipflop13\.d
*73 flipflop13\.q
*74 flipflop14\.d
*75 flipflop14\.q
*76 flipflop15\.d
*77 flipflop15\.q
*78 flipflop16\.d
*79 flipflop16\.q
*80 flipflop17\.d
*81 flipflop17\.q
*82 flipflop18\.d
*83 flipflop18\.q
*84 flipflop19\.d
*85 flipflop19\.q
*86 flipflop2\.d
*87 flipflop2\.q
*88 flipflop20\.d
*89 flipflop20\.q
*90 flipflop21\.d
*91 flipflop21\.q
*92 flipflop22\.d
*93 flipflop22\.q
*94 flipflop23\.d
*95 flipflop23\.q
*96 flipflop24\.q
*97 flipflop25\.d
*98 flipflop25\.q
*99 flipflop26\.d
*100 flipflop26\.q
*101 flipflop27\.d
*102 flipflop27\.q
*103 flipflop28\.d
*104 flipflop28\.q
*105 flipflop29\.d
*106 flipflop29\.q
*107 flipflop3\.d
*108 flipflop3\.q
*109 flipflop30\.q
*110 flipflop4\.d
*111 flipflop4\.q
*112 flipflop5\.d
*113 flipflop5\.q
*114 flipflop6\.d
*115 flipflop6\.q
*116 flipflop7\.d
*117 flipflop7\.q
*118 flipflop8\.d
*119 flipflop8\.q
*120 flipflop9\.d
*121 mux4\.out
*122 net1
*123 net2
*124 net3
*125 net4
*126 net5
*127 net6
*128 net7
*129 net8
*130 net9
*131 FILLER_0_109
*132 FILLER_0_113
*133 FILLER_0_125
*134 FILLER_0_137
*135 FILLER_0_141
*136 FILLER_0_153
*137 FILLER_0_165
*138 FILLER_0_169
*139 FILLER_0_181
*140 FILLER_0_193
*141 FILLER_0_197
*142 FILLER_0_209
*143 FILLER_0_221
*144 FILLER_0_225
*145 FILLER_0_237
*146 FILLER_0_24
*147 FILLER_0_249
*148 FILLER_0_253
*149 FILLER_0_265
*150 FILLER_0_277
*151 FILLER_0_281
*152 FILLER_0_29
*153 FILLER_0_293
*154 FILLER_0_3
*155 FILLER_0_35
*156 FILLER_0_52
*157 FILLER_0_7
*158 FILLER_0_73
*159 FILLER_0_81
*160 FILLER_0_85
*161 FILLER_0_97
*162 FILLER_10_109
*163 FILLER_10_121
*164 FILLER_10_133
*165 FILLER_10_139
*166 FILLER_10_141
*167 FILLER_10_15
*168 FILLER_10_153
*169 FILLER_10_165
*170 FILLER_10_177
*171 FILLER_10_189
*172 FILLER_10_195
*173 FILLER_10_197
*174 FILLER_10_209
*175 FILLER_10_221
*176 FILLER_10_233
*177 FILLER_10_245
*178 FILLER_10_251
*179 FILLER_10_253
*180 FILLER_10_265
*181 FILLER_10_27
*182 FILLER_10_277
*183 FILLER_10_289
*184 FILLER_10_29
*185 FILLER_10_297
*186 FILLER_10_3
*187 FILLER_10_41
*188 FILLER_10_53
*189 FILLER_10_65
*190 FILLER_10_77
*191 FILLER_10_83
*192 FILLER_10_85
*193 FILLER_10_97
*194 FILLER_11_105
*195 FILLER_11_111
*196 FILLER_11_113
*197 FILLER_11_125
*198 FILLER_11_137
*199 FILLER_11_149
*200 FILLER_11_15
*201 FILLER_11_161
*202 FILLER_11_167
*203 FILLER_11_169
*204 FILLER_11_181
*205 FILLER_11_193
*206 FILLER_11_205
*207 FILLER_11_217
*208 FILLER_11_223
*209 FILLER_11_225
*210 FILLER_11_237
*211 FILLER_11_249
*212 FILLER_11_261
*213 FILLER_11_27
*214 FILLER_11_273
*215 FILLER_11_279
*216 FILLER_11_281
*217 FILLER_11_293
*218 FILLER_11_3
*219 FILLER_11_43
*220 FILLER_11_55
*221 FILLER_11_57
*222 FILLER_11_69
*223 FILLER_11_81
*224 FILLER_11_93
*225 FILLER_12_109
*226 FILLER_12_121
*227 FILLER_12_133
*228 FILLER_12_139
*229 FILLER_12_141
*230 FILLER_12_15
*231 FILLER_12_153
*232 FILLER_12_165
*233 FILLER_12_177
*234 FILLER_12_189
*235 FILLER_12_195
*236 FILLER_12_197
*237 FILLER_12_209
*238 FILLER_12_221
*239 FILLER_12_233
*240 FILLER_12_245
*241 FILLER_12_251
*242 FILLER_12_253
*243 FILLER_12_265
*244 FILLER_12_27
*245 FILLER_12_277
*246 FILLER_12_289
*247 FILLER_12_29
*248 FILLER_12_297
*249 FILLER_12_3
*250 FILLER_12_41
*251 FILLER_12_53
*252 FILLER_12_65
*253 FILLER_12_77
*254 FILLER_12_83
*255 FILLER_12_85
*256 FILLER_12_97
*257 FILLER_13_101
*258 FILLER_13_109
*259 FILLER_13_113
*260 FILLER_13_125
*261 FILLER_13_137
*262 FILLER_13_149
*263 FILLER_13_15
*264 FILLER_13_161
*265 FILLER_13_167
*266 FILLER_13_169
*267 FILLER_13_181
*268 FILLER_13_193
*269 FILLER_13_205
*270 FILLER_13_217
*271 FILLER_13_22
*272 FILLER_13_223
*273 FILLER_13_225
*274 FILLER_13_237
*275 FILLER_13_249
*276 FILLER_13_261
*277 FILLER_13_273
*278 FILLER_13_279
*279 FILLER_13_281
*280 FILLER_13_293
*281 FILLER_13_3
*282 FILLER_13_34
*283 FILLER_13_46
*284 FILLER_13_54
*285 FILLER_13_57
*286 FILLER_13_65
*287 FILLER_13_77
*288 FILLER_13_89
*289 FILLER_14_109
*290 FILLER_14_121
*291 FILLER_14_133
*292 FILLER_14_139
*293 FILLER_14_141
*294 FILLER_14_15
*295 FILLER_14_153
*296 FILLER_14_165
*297 FILLER_14_177
*298 FILLER_14_189
*299 FILLER_14_195
*300 FILLER_14_197
*301 FILLER_14_209
*302 FILLER_14_221
*303 FILLER_14_233
*304 FILLER_14_245
*305 FILLER_14_251
*306 FILLER_14_253
*307 FILLER_14_265
*308 FILLER_14_27
*309 FILLER_14_277
*310 FILLER_14_289
*311 FILLER_14_29
*312 FILLER_14_297
*313 FILLER_14_3
*314 FILLER_14_41
*315 FILLER_14_53
*316 FILLER_14_65
*317 FILLER_14_77
*318 FILLER_14_83
*319 FILLER_14_85
*320 FILLER_14_97
*321 FILLER_15_105
*322 FILLER_15_11
*323 FILLER_15_111
*324 FILLER_15_113
*325 FILLER_15_125
*326 FILLER_15_137
*327 FILLER_15_149
*328 FILLER_15_161
*329 FILLER_15_167
*330 FILLER_15_169
*331 FILLER_15_181
*332 FILLER_15_193
*333 FILLER_15_205
*334 FILLER_15_217
*335 FILLER_15_223
*336 FILLER_15_225
*337 FILLER_15_23
*338 FILLER_15_237
*339 FILLER_15_249
*340 FILLER_15_261
*341 FILLER_15_273
*342 FILLER_15_279
*343 FILLER_15_281
*344 FILLER_15_293
*345 FILLER_15_3
*346 FILLER_15_35
*347 FILLER_15_47
*348 FILLER_15_55
*349 FILLER_15_57
*350 FILLER_15_69
*351 FILLER_15_81
*352 FILLER_15_93
*353 FILLER_16_101
*354 FILLER_16_113
*355 FILLER_16_125
*356 FILLER_16_137
*357 FILLER_16_141
*358 FILLER_16_15
*359 FILLER_16_153
*360 FILLER_16_165
*361 FILLER_16_177
*362 FILLER_16_189
*363 FILLER_16_195
*364 FILLER_16_197
*365 FILLER_16_209
*366 FILLER_16_221
*367 FILLER_16_233
*368 FILLER_16_245
*369 FILLER_16_251
*370 FILLER_16_253
*371 FILLER_16_265
*372 FILLER_16_27
*373 FILLER_16_277
*374 FILLER_16_289
*375 FILLER_16_29
*376 FILLER_16_297
*377 FILLER_16_3
*378 FILLER_16_37
*379 FILLER_16_44
*380 FILLER_16_56
*381 FILLER_16_68
*382 FILLER_16_80
*383 FILLER_16_85
*384 FILLER_16_93
*385 FILLER_17_107
*386 FILLER_17_111
*387 FILLER_17_113
*388 FILLER_17_125
*389 FILLER_17_137
*390 FILLER_17_149
*391 FILLER_17_15
*392 FILLER_17_161
*393 FILLER_17_167
*394 FILLER_17_169
*395 FILLER_17_181
*396 FILLER_17_193
*397 FILLER_17_205
*398 FILLER_17_217
*399 FILLER_17_223
*400 FILLER_17_225
*401 FILLER_17_237
*402 FILLER_17_249
*403 FILLER_17_261
*404 FILLER_17_27
*405 FILLER_17_273
*406 FILLER_17_279
*407 FILLER_17_281
*408 FILLER_17_293
*409 FILLER_17_3
*410 FILLER_17_39
*411 FILLER_17_51
*412 FILLER_17_55
*413 FILLER_17_57
*414 FILLER_17_69
*415 FILLER_17_81
*416 FILLER_17_89
*417 FILLER_17_95
*418 FILLER_18_105
*419 FILLER_18_117
*420 FILLER_18_129
*421 FILLER_18_137
*422 FILLER_18_141
*423 FILLER_18_15
*424 FILLER_18_153
*425 FILLER_18_165
*426 FILLER_18_177
*427 FILLER_18_189
*428 FILLER_18_195
*429 FILLER_18_197
*430 FILLER_18_209
*431 FILLER_18_221
*432 FILLER_18_233
*433 FILLER_18_245
*434 FILLER_18_251
*435 FILLER_18_253
*436 FILLER_18_265
*437 FILLER_18_27
*438 FILLER_18_277
*439 FILLER_18_289
*440 FILLER_18_29
*441 FILLER_18_297
*442 FILLER_18_3
*443 FILLER_18_41
*444 FILLER_18_53
*445 FILLER_18_65
*446 FILLER_18_77
*447 FILLER_18_83
*448 FILLER_18_93
*449 FILLER_19_105
*450 FILLER_19_111
*451 FILLER_19_113
*452 FILLER_19_125
*453 FILLER_19_137
*454 FILLER_19_149
*455 FILLER_19_15
*456 FILLER_19_161
*457 FILLER_19_167
*458 FILLER_19_169
*459 FILLER_19_181
*460 FILLER_19_193
*461 FILLER_19_205
*462 FILLER_19_217
*463 FILLER_19_22
*464 FILLER_19_223
*465 FILLER_19_225
*466 FILLER_19_237
*467 FILLER_19_249
*468 FILLER_19_261
*469 FILLER_19_273
*470 FILLER_19_279
*471 FILLER_19_281
*472 FILLER_19_293
*473 FILLER_19_3
*474 FILLER_19_34
*475 FILLER_19_46
*476 FILLER_19_54
*477 FILLER_19_57
*478 FILLER_19_69
*479 FILLER_19_81
*480 FILLER_19_93
*481 FILLER_1_109
*482 FILLER_1_113
*483 FILLER_1_125
*484 FILLER_1_137
*485 FILLER_1_149
*486 FILLER_1_15
*487 FILLER_1_161
*488 FILLER_1_167
*489 FILLER_1_169
*490 FILLER_1_181
*491 FILLER_1_193
*492 FILLER_1_205
*493 FILLER_1_217
*494 FILLER_1_223
*495 FILLER_1_225
*496 FILLER_1_237
*497 FILLER_1_249
*498 FILLER_1_261
*499 FILLER_1_273
*500 FILLER_1_279
*501 FILLER_1_281
*502 FILLER_1_293
*503 FILLER_1_3
*504 FILLER_1_36
*505 FILLER_1_48
*506 FILLER_1_73
*507 FILLER_1_85
*508 FILLER_1_97
*509 FILLER_20_109
*510 FILLER_20_11
*511 FILLER_20_121
*512 FILLER_20_133
*513 FILLER_20_139
*514 FILLER_20_141
*515 FILLER_20_153
*516 FILLER_20_165
*517 FILLER_20_177
*518 FILLER_20_189
*519 FILLER_20_195
*520 FILLER_20_197
*521 FILLER_20_209
*522 FILLER_20_221
*523 FILLER_20_23
*524 FILLER_20_233
*525 FILLER_20_245
*526 FILLER_20_251
*527 FILLER_20_253
*528 FILLER_20_265
*529 FILLER_20_27
*530 FILLER_20_277
*531 FILLER_20_289
*532 FILLER_20_29
*533 FILLER_20_297
*534 FILLER_20_3
*535 FILLER_20_41
*536 FILLER_20_53
*537 FILLER_20_65
*538 FILLER_20_77
*539 FILLER_20_83
*540 FILLER_20_85
*541 FILLER_20_97
*542 FILLER_21_110
*543 FILLER_21_113
*544 FILLER_21_125
*545 FILLER_21_137
*546 FILLER_21_149
*547 FILLER_21_161
*548 FILLER_21_167
*549 FILLER_21_169
*550 FILLER_21_181
*551 FILLER_21_19
*552 FILLER_21_193
*553 FILLER_21_205
*554 FILLER_21_217
*555 FILLER_21_223
*556 FILLER_21_225
*557 FILLER_21_237
*558 FILLER_21_249
*559 FILLER_21_261
*560 FILLER_21_273
*561 FILLER_21_279
*562 FILLER_21_281
*563 FILLER_21_293
*564 FILLER_21_31
*565 FILLER_21_43
*566 FILLER_21_55
*567 FILLER_21_57
*568 FILLER_21_65
*569 FILLER_21_7
*570 FILLER_21_74
*571 FILLER_21_86
*572 FILLER_21_98
*573 FILLER_22_109
*574 FILLER_22_121
*575 FILLER_22_133
*576 FILLER_22_139
*577 FILLER_22_141
*578 FILLER_22_15
*579 FILLER_22_153
*580 FILLER_22_165
*581 FILLER_22_177
*582 FILLER_22_189
*583 FILLER_22_195
*584 FILLER_22_197
*585 FILLER_22_209
*586 FILLER_22_221
*587 FILLER_22_233
*588 FILLER_22_245
*589 FILLER_22_251
*590 FILLER_22_253
*591 FILLER_22_265
*592 FILLER_22_27
*593 FILLER_22_277
*594 FILLER_22_289
*595 FILLER_22_29
*596 FILLER_22_297
*597 FILLER_22_3
*598 FILLER_22_41
*599 FILLER_22_53
*600 FILLER_22_65
*601 FILLER_22_77
*602 FILLER_22_83
*603 FILLER_22_85
*604 FILLER_22_97
*605 FILLER_23_105
*606 FILLER_23_111
*607 FILLER_23_113
*608 FILLER_23_125
*609 FILLER_23_137
*610 FILLER_23_149
*611 FILLER_23_16
*612 FILLER_23_161
*613 FILLER_23_167
*614 FILLER_23_169
*615 FILLER_23_181
*616 FILLER_23_193
*617 FILLER_23_205
*618 FILLER_23_217
*619 FILLER_23_223
*620 FILLER_23_225
*621 FILLER_23_237
*622 FILLER_23_24
*623 FILLER_23_249
*624 FILLER_23_261
*625 FILLER_23_273
*626 FILLER_23_279
*627 FILLER_23_281
*628 FILLER_23_293
*629 FILLER_23_3
*630 FILLER_23_36
*631 FILLER_23_52
*632 FILLER_23_57
*633 FILLER_23_69
*634 FILLER_23_81
*635 FILLER_23_9
*636 FILLER_23_93
*637 FILLER_24_109
*638 FILLER_24_121
*639 FILLER_24_133
*640 FILLER_24_139
*641 FILLER_24_141
*642 FILLER_24_153
*643 FILLER_24_165
*644 FILLER_24_177
*645 FILLER_24_189
*646 FILLER_24_19
*647 FILLER_24_195
*648 FILLER_24_197
*649 FILLER_24_209
*650 FILLER_24_221
*651 FILLER_24_233
*652 FILLER_24_245
*653 FILLER_24_251
*654 FILLER_24_253
*655 FILLER_24_265
*656 FILLER_24_27
*657 FILLER_24_277
*658 FILLER_24_289
*659 FILLER_24_29
*660 FILLER_24_297
*661 FILLER_24_41
*662 FILLER_24_53
*663 FILLER_24_65
*664 FILLER_24_77
*665 FILLER_24_83
*666 FILLER_24_85
*667 FILLER_24_97
*668 FILLER_25_105
*669 FILLER_25_11
*670 FILLER_25_111
*671 FILLER_25_113
*672 FILLER_25_122
*673 FILLER_25_134
*674 FILLER_25_146
*675 FILLER_25_158
*676 FILLER_25_166
*677 FILLER_25_169
*678 FILLER_25_181
*679 FILLER_25_193
*680 FILLER_25_20
*681 FILLER_25_205
*682 FILLER_25_217
*683 FILLER_25_223
*684 FILLER_25_225
*685 FILLER_25_237
*686 FILLER_25_249
*687 FILLER_25_261
*688 FILLER_25_273
*689 FILLER_25_279
*690 FILLER_25_281
*691 FILLER_25_293
*692 FILLER_25_3
*693 FILLER_25_32
*694 FILLER_25_44
*695 FILLER_25_57
*696 FILLER_25_69
*697 FILLER_25_81
*698 FILLER_25_93
*699 FILLER_26_109
*700 FILLER_26_11
*701 FILLER_26_121
*702 FILLER_26_133
*703 FILLER_26_139
*704 FILLER_26_141
*705 FILLER_26_153
*706 FILLER_26_165
*707 FILLER_26_177
*708 FILLER_26_189
*709 FILLER_26_195
*710 FILLER_26_197
*711 FILLER_26_209
*712 FILLER_26_221
*713 FILLER_26_23
*714 FILLER_26_233
*715 FILLER_26_245
*716 FILLER_26_251
*717 FILLER_26_253
*718 FILLER_26_265
*719 FILLER_26_27
*720 FILLER_26_277
*721 FILLER_26_289
*722 FILLER_26_29
*723 FILLER_26_297
*724 FILLER_26_3
*725 FILLER_26_41
*726 FILLER_26_53
*727 FILLER_26_65
*728 FILLER_26_77
*729 FILLER_26_83
*730 FILLER_26_85
*731 FILLER_26_97
*732 FILLER_27_10
*733 FILLER_27_103
*734 FILLER_27_111
*735 FILLER_27_113
*736 FILLER_27_125
*737 FILLER_27_137
*738 FILLER_27_149
*739 FILLER_27_161
*740 FILLER_27_167
*741 FILLER_27_169
*742 FILLER_27_181
*743 FILLER_27_193
*744 FILLER_27_20
*745 FILLER_27_205
*746 FILLER_27_217
*747 FILLER_27_223
*748 FILLER_27_225
*749 FILLER_27_237
*750 FILLER_27_249
*751 FILLER_27_261
*752 FILLER_27_273
*753 FILLER_27_279
*754 FILLER_27_281
*755 FILLER_27_293
*756 FILLER_27_3
*757 FILLER_27_32
*758 FILLER_27_44
*759 FILLER_27_52
*760 FILLER_27_57
*761 FILLER_27_67
*762 FILLER_27_79
*763 FILLER_27_91
*764 FILLER_28_10
*765 FILLER_28_109
*766 FILLER_28_121
*767 FILLER_28_133
*768 FILLER_28_139
*769 FILLER_28_141
*770 FILLER_28_153
*771 FILLER_28_165
*772 FILLER_28_177
*773 FILLER_28_189
*774 FILLER_28_195
*775 FILLER_28_197
*776 FILLER_28_209
*777 FILLER_28_22
*778 FILLER_28_221
*779 FILLER_28_233
*780 FILLER_28_245
*781 FILLER_28_251
*782 FILLER_28_253
*783 FILLER_28_265
*784 FILLER_28_277
*785 FILLER_28_289
*786 FILLER_28_29
*787 FILLER_28_297
*788 FILLER_28_41
*789 FILLER_28_53
*790 FILLER_28_65
*791 FILLER_28_77
*792 FILLER_28_83
*793 FILLER_28_85
*794 FILLER_28_97
*795 FILLER_29_105
*796 FILLER_29_111
*797 FILLER_29_113
*798 FILLER_29_125
*799 FILLER_29_137
*800 FILLER_29_149
*801 FILLER_29_15
*802 FILLER_29_161
*803 FILLER_29_167
*804 FILLER_29_169
*805 FILLER_29_181
*806 FILLER_29_193
*807 FILLER_29_205
*808 FILLER_29_217
*809 FILLER_29_22
*810 FILLER_29_223
*811 FILLER_29_225
*812 FILLER_29_237
*813 FILLER_29_249
*814 FILLER_29_261
*815 FILLER_29_273
*816 FILLER_29_279
*817 FILLER_29_281
*818 FILLER_29_293
*819 FILLER_29_3
*820 FILLER_29_34
*821 FILLER_29_46
*822 FILLER_29_54
*823 FILLER_29_57
*824 FILLER_29_69
*825 FILLER_29_81
*826 FILLER_29_93
*827 FILLER_2_109
*828 FILLER_2_121
*829 FILLER_2_133
*830 FILLER_2_139
*831 FILLER_2_141
*832 FILLER_2_153
*833 FILLER_2_165
*834 FILLER_2_177
*835 FILLER_2_189
*836 FILLER_2_195
*837 FILLER_2_197
*838 FILLER_2_209
*839 FILLER_2_221
*840 FILLER_2_233
*841 FILLER_2_24
*842 FILLER_2_245
*843 FILLER_2_251
*844 FILLER_2_253
*845 FILLER_2_265
*846 FILLER_2_277
*847 FILLER_2_289
*848 FILLER_2_29
*849 FILLER_2_297
*850 FILLER_2_3
*851 FILLER_2_41
*852 FILLER_2_65
*853 FILLER_2_77
*854 FILLER_2_83
*855 FILLER_2_85
*856 FILLER_2_97
*857 FILLER_30_10
*858 FILLER_30_105
*859 FILLER_30_117
*860 FILLER_30_129
*861 FILLER_30_137
*862 FILLER_30_141
*863 FILLER_30_153
*864 FILLER_30_165
*865 FILLER_30_177
*866 FILLER_30_189
*867 FILLER_30_195
*868 FILLER_30_197
*869 FILLER_30_209
*870 FILLER_30_22
*871 FILLER_30_221
*872 FILLER_30_233
*873 FILLER_30_245
*874 FILLER_30_251
*875 FILLER_30_253
*876 FILLER_30_265
*877 FILLER_30_277
*878 FILLER_30_289
*879 FILLER_30_297
*880 FILLER_30_33
*881 FILLER_30_45
*882 FILLER_30_57
*883 FILLER_30_63
*884 FILLER_30_70
*885 FILLER_30_82
*886 FILLER_30_85
*887 FILLER_31_111
*888 FILLER_31_113
*889 FILLER_31_125
*890 FILLER_31_137
*891 FILLER_31_149
*892 FILLER_31_15
*893 FILLER_31_161
*894 FILLER_31_167
*895 FILLER_31_169
*896 FILLER_31_181
*897 FILLER_31_193
*898 FILLER_31_205
*899 FILLER_31_217
*900 FILLER_31_223
*901 FILLER_31_225
*902 FILLER_31_237
*903 FILLER_31_249
*904 FILLER_31_261
*905 FILLER_31_27
*906 FILLER_31_273
*907 FILLER_31_279
*908 FILLER_31_281
*909 FILLER_31_293
*910 FILLER_31_3
*911 FILLER_31_39
*912 FILLER_31_51
*913 FILLER_31_55
*914 FILLER_31_66
*915 FILLER_31_78
*916 FILLER_31_90
*917 FILLER_31_99
*918 FILLER_32_109
*919 FILLER_32_11
*920 FILLER_32_121
*921 FILLER_32_133
*922 FILLER_32_139
*923 FILLER_32_141
*924 FILLER_32_153
*925 FILLER_32_165
*926 FILLER_32_177
*927 FILLER_32_189
*928 FILLER_32_195
*929 FILLER_32_197
*930 FILLER_32_209
*931 FILLER_32_221
*932 FILLER_32_233
*933 FILLER_32_24
*934 FILLER_32_245
*935 FILLER_32_251
*936 FILLER_32_253
*937 FILLER_32_265
*938 FILLER_32_277
*939 FILLER_32_289
*940 FILLER_32_29
*941 FILLER_32_297
*942 FILLER_32_3
*943 FILLER_32_41
*944 FILLER_32_53
*945 FILLER_32_65
*946 FILLER_32_77
*947 FILLER_32_83
*948 FILLER_32_85
*949 FILLER_32_97
*950 FILLER_33_107
*951 FILLER_33_111
*952 FILLER_33_113
*953 FILLER_33_125
*954 FILLER_33_137
*955 FILLER_33_149
*956 FILLER_33_15
*957 FILLER_33_161
*958 FILLER_33_167
*959 FILLER_33_169
*960 FILLER_33_181
*961 FILLER_33_193
*962 FILLER_33_205
*963 FILLER_33_217
*964 FILLER_33_223
*965 FILLER_33_225
*966 FILLER_33_237
*967 FILLER_33_249
*968 FILLER_33_261
*969 FILLER_33_27
*970 FILLER_33_273
*971 FILLER_33_279
*972 FILLER_33_281
*973 FILLER_33_293
*974 FILLER_33_3
*975 FILLER_33_39
*976 FILLER_33_51
*977 FILLER_33_55
*978 FILLER_33_57
*979 FILLER_33_69
*980 FILLER_33_77
*981 FILLER_33_95
*982 FILLER_34_111
*983 FILLER_34_123
*984 FILLER_34_135
*985 FILLER_34_139
*986 FILLER_34_141
*987 FILLER_34_15
*988 FILLER_34_153
*989 FILLER_34_165
*990 FILLER_34_177
*991 FILLER_34_189
*992 FILLER_34_195
*993 FILLER_34_197
*994 FILLER_34_209
*995 FILLER_34_221
*996 FILLER_34_233
*997 FILLER_34_245
*998 FILLER_34_251
*999 FILLER_34_253
*1000 FILLER_34_265
*1001 FILLER_34_27
*1002 FILLER_34_277
*1003 FILLER_34_289
*1004 FILLER_34_297
*1005 FILLER_34_3
*1006 FILLER_34_38
*1007 FILLER_34_50
*1008 FILLER_34_62
*1009 FILLER_34_74
*1010 FILLER_34_82
*1011 FILLER_34_85
*1012 FILLER_34_93
*1013 FILLER_35_105
*1014 FILLER_35_111
*1015 FILLER_35_113
*1016 FILLER_35_125
*1017 FILLER_35_137
*1018 FILLER_35_149
*1019 FILLER_35_161
*1020 FILLER_35_167
*1021 FILLER_35_169
*1022 FILLER_35_181
*1023 FILLER_35_193
*1024 FILLER_35_205
*1025 FILLER_35_21
*1026 FILLER_35_217
*1027 FILLER_35_223
*1028 FILLER_35_225
*1029 FILLER_35_237
*1030 FILLER_35_249
*1031 FILLER_35_261
*1032 FILLER_35_273
*1033 FILLER_35_279
*1034 FILLER_35_281
*1035 FILLER_35_293
*1036 FILLER_35_3
*1037 FILLER_35_33
*1038 FILLER_35_45
*1039 FILLER_35_53
*1040 FILLER_35_57
*1041 FILLER_35_69
*1042 FILLER_35_81
*1043 FILLER_35_9
*1044 FILLER_35_93
*1045 FILLER_36_109
*1046 FILLER_36_11
*1047 FILLER_36_121
*1048 FILLER_36_133
*1049 FILLER_36_139
*1050 FILLER_36_141
*1051 FILLER_36_153
*1052 FILLER_36_165
*1053 FILLER_36_177
*1054 FILLER_36_189
*1055 FILLER_36_195
*1056 FILLER_36_197
*1057 FILLER_36_209
*1058 FILLER_36_21
*1059 FILLER_36_221
*1060 FILLER_36_233
*1061 FILLER_36_245
*1062 FILLER_36_251
*1063 FILLER_36_253
*1064 FILLER_36_265
*1065 FILLER_36_27
*1066 FILLER_36_277
*1067 FILLER_36_289
*1068 FILLER_36_29
*1069 FILLER_36_297
*1070 FILLER_36_3
*1071 FILLER_36_41
*1072 FILLER_36_51
*1073 FILLER_36_63
*1074 FILLER_36_75
*1075 FILLER_36_83
*1076 FILLER_36_85
*1077 FILLER_36_97
*1078 FILLER_37_104
*1079 FILLER_37_113
*1080 FILLER_37_125
*1081 FILLER_37_137
*1082 FILLER_37_149
*1083 FILLER_37_16
*1084 FILLER_37_161
*1085 FILLER_37_167
*1086 FILLER_37_169
*1087 FILLER_37_181
*1088 FILLER_37_193
*1089 FILLER_37_205
*1090 FILLER_37_217
*1091 FILLER_37_223
*1092 FILLER_37_225
*1093 FILLER_37_237
*1094 FILLER_37_249
*1095 FILLER_37_25
*1096 FILLER_37_261
*1097 FILLER_37_273
*1098 FILLER_37_279
*1099 FILLER_37_281
*1100 FILLER_37_293
*1101 FILLER_37_3
*1102 FILLER_37_37
*1103 FILLER_37_52
*1104 FILLER_37_73
*1105 FILLER_37_85
*1106 FILLER_37_97
*1107 FILLER_38_101
*1108 FILLER_38_113
*1109 FILLER_38_125
*1110 FILLER_38_137
*1111 FILLER_38_141
*1112 FILLER_38_15
*1113 FILLER_38_153
*1114 FILLER_38_165
*1115 FILLER_38_177
*1116 FILLER_38_189
*1117 FILLER_38_195
*1118 FILLER_38_197
*1119 FILLER_38_209
*1120 FILLER_38_221
*1121 FILLER_38_233
*1122 FILLER_38_245
*1123 FILLER_38_251
*1124 FILLER_38_253
*1125 FILLER_38_265
*1126 FILLER_38_27
*1127 FILLER_38_277
*1128 FILLER_38_289
*1129 FILLER_38_29
*1130 FILLER_38_297
*1131 FILLER_38_3
*1132 FILLER_38_41
*1133 FILLER_38_53
*1134 FILLER_38_65
*1135 FILLER_38_77
*1136 FILLER_38_83
*1137 FILLER_38_89
*1138 FILLER_39_103
*1139 FILLER_39_11
*1140 FILLER_39_111
*1141 FILLER_39_113
*1142 FILLER_39_125
*1143 FILLER_39_137
*1144 FILLER_39_149
*1145 FILLER_39_161
*1146 FILLER_39_167
*1147 FILLER_39_169
*1148 FILLER_39_181
*1149 FILLER_39_193
*1150 FILLER_39_20
*1151 FILLER_39_205
*1152 FILLER_39_217
*1153 FILLER_39_223
*1154 FILLER_39_225
*1155 FILLER_39_237
*1156 FILLER_39_249
*1157 FILLER_39_261
*1158 FILLER_39_273
*1159 FILLER_39_279
*1160 FILLER_39_281
*1161 FILLER_39_293
*1162 FILLER_39_3
*1163 FILLER_39_32
*1164 FILLER_39_44
*1165 FILLER_39_57
*1166 FILLER_39_67
*1167 FILLER_39_79
*1168 FILLER_39_91
*1169 FILLER_3_10
*1170 FILLER_3_105
*1171 FILLER_3_111
*1172 FILLER_3_113
*1173 FILLER_3_125
*1174 FILLER_3_137
*1175 FILLER_3_149
*1176 FILLER_3_161
*1177 FILLER_3_167
*1178 FILLER_3_169
*1179 FILLER_3_181
*1180 FILLER_3_193
*1181 FILLER_3_205
*1182 FILLER_3_217
*1183 FILLER_3_223
*1184 FILLER_3_225
*1185 FILLER_3_237
*1186 FILLER_3_249
*1187 FILLER_3_261
*1188 FILLER_3_273
*1189 FILLER_3_279
*1190 FILLER_3_281
*1191 FILLER_3_293
*1192 FILLER_3_3
*1193 FILLER_3_38
*1194 FILLER_3_44
*1195 FILLER_3_48
*1196 FILLER_3_57
*1197 FILLER_3_69
*1198 FILLER_3_81
*1199 FILLER_3_93
*1200 FILLER_40_114
*1201 FILLER_40_126
*1202 FILLER_40_138
*1203 FILLER_40_141
*1204 FILLER_40_15
*1205 FILLER_40_153
*1206 FILLER_40_165
*1207 FILLER_40_177
*1208 FILLER_40_189
*1209 FILLER_40_195
*1210 FILLER_40_197
*1211 FILLER_40_209
*1212 FILLER_40_221
*1213 FILLER_40_233
*1214 FILLER_40_24
*1215 FILLER_40_245
*1216 FILLER_40_251
*1217 FILLER_40_253
*1218 FILLER_40_265
*1219 FILLER_40_277
*1220 FILLER_40_289
*1221 FILLER_40_29
*1222 FILLER_40_297
*1223 FILLER_40_3
*1224 FILLER_40_38
*1225 FILLER_40_50
*1226 FILLER_40_62
*1227 FILLER_40_74
*1228 FILLER_40_82
*1229 FILLER_40_85
*1230 FILLER_40_97
*1231 FILLER_41_103
*1232 FILLER_41_111
*1233 FILLER_41_113
*1234 FILLER_41_125
*1235 FILLER_41_137
*1236 FILLER_41_149
*1237 FILLER_41_15
*1238 FILLER_41_161
*1239 FILLER_41_167
*1240 FILLER_41_169
*1241 FILLER_41_181
*1242 FILLER_41_193
*1243 FILLER_41_205
*1244 FILLER_41_217
*1245 FILLER_41_223
*1246 FILLER_41_225
*1247 FILLER_41_237
*1248 FILLER_41_249
*1249 FILLER_41_261
*1250 FILLER_41_27
*1251 FILLER_41_273
*1252 FILLER_41_279
*1253 FILLER_41_281
*1254 FILLER_41_293
*1255 FILLER_41_3
*1256 FILLER_41_34
*1257 FILLER_41_46
*1258 FILLER_41_54
*1259 FILLER_41_57
*1260 FILLER_41_65
*1261 FILLER_41_71
*1262 FILLER_41_79
*1263 FILLER_41_91
*1264 FILLER_42_119
*1265 FILLER_42_131
*1266 FILLER_42_139
*1267 FILLER_42_141
*1268 FILLER_42_15
*1269 FILLER_42_153
*1270 FILLER_42_165
*1271 FILLER_42_177
*1272 FILLER_42_189
*1273 FILLER_42_195
*1274 FILLER_42_197
*1275 FILLER_42_209
*1276 FILLER_42_221
*1277 FILLER_42_233
*1278 FILLER_42_245
*1279 FILLER_42_251
*1280 FILLER_42_253
*1281 FILLER_42_265
*1282 FILLER_42_27
*1283 FILLER_42_277
*1284 FILLER_42_289
*1285 FILLER_42_29
*1286 FILLER_42_297
*1287 FILLER_42_3
*1288 FILLER_42_33
*1289 FILLER_42_38
*1290 FILLER_42_46
*1291 FILLER_42_63
*1292 FILLER_42_75
*1293 FILLER_42_83
*1294 FILLER_42_85
*1295 FILLER_42_97
*1296 FILLER_43_111
*1297 FILLER_43_113
*1298 FILLER_43_125
*1299 FILLER_43_137
*1300 FILLER_43_149
*1301 FILLER_43_15
*1302 FILLER_43_161
*1303 FILLER_43_167
*1304 FILLER_43_169
*1305 FILLER_43_181
*1306 FILLER_43_193
*1307 FILLER_43_205
*1308 FILLER_43_217
*1309 FILLER_43_223
*1310 FILLER_43_225
*1311 FILLER_43_237
*1312 FILLER_43_249
*1313 FILLER_43_261
*1314 FILLER_43_27
*1315 FILLER_43_273
*1316 FILLER_43_279
*1317 FILLER_43_281
*1318 FILLER_43_293
*1319 FILLER_43_3
*1320 FILLER_43_32
*1321 FILLER_43_44
*1322 FILLER_43_57
*1323 FILLER_43_69
*1324 FILLER_43_87
*1325 FILLER_43_99
*1326 FILLER_44_109
*1327 FILLER_44_115
*1328 FILLER_44_127
*1329 FILLER_44_139
*1330 FILLER_44_14
*1331 FILLER_44_141
*1332 FILLER_44_153
*1333 FILLER_44_165
*1334 FILLER_44_177
*1335 FILLER_44_189
*1336 FILLER_44_195
*1337 FILLER_44_197
*1338 FILLER_44_20
*1339 FILLER_44_209
*1340 FILLER_44_221
*1341 FILLER_44_233
*1342 FILLER_44_24
*1343 FILLER_44_245
*1344 FILLER_44_251
*1345 FILLER_44_253
*1346 FILLER_44_265
*1347 FILLER_44_277
*1348 FILLER_44_289
*1349 FILLER_44_297
*1350 FILLER_44_3
*1351 FILLER_44_35
*1352 FILLER_44_47
*1353 FILLER_44_59
*1354 FILLER_44_71
*1355 FILLER_44_83
*1356 FILLER_44_85
*1357 FILLER_44_97
*1358 FILLER_45_10
*1359 FILLER_45_103
*1360 FILLER_45_108
*1361 FILLER_45_129
*1362 FILLER_45_141
*1363 FILLER_45_153
*1364 FILLER_45_165
*1365 FILLER_45_169
*1366 FILLER_45_181
*1367 FILLER_45_193
*1368 FILLER_45_205
*1369 FILLER_45_217
*1370 FILLER_45_22
*1371 FILLER_45_223
*1372 FILLER_45_225
*1373 FILLER_45_237
*1374 FILLER_45_249
*1375 FILLER_45_261
*1376 FILLER_45_27
*1377 FILLER_45_273
*1378 FILLER_45_279
*1379 FILLER_45_281
*1380 FILLER_45_293
*1381 FILLER_45_3
*1382 FILLER_45_39
*1383 FILLER_45_51
*1384 FILLER_45_55
*1385 FILLER_45_73
*1386 FILLER_45_85
*1387 FILLER_45_97
*1388 FILLER_46_109
*1389 FILLER_46_121
*1390 FILLER_46_133
*1391 FILLER_46_139
*1392 FILLER_46_141
*1393 FILLER_46_153
*1394 FILLER_46_165
*1395 FILLER_46_177
*1396 FILLER_46_189
*1397 FILLER_46_195
*1398 FILLER_46_197
*1399 FILLER_46_20
*1400 FILLER_46_209
*1401 FILLER_46_221
*1402 FILLER_46_233
*1403 FILLER_46_245
*1404 FILLER_46_251
*1405 FILLER_46_253
*1406 FILLER_46_265
*1407 FILLER_46_277
*1408 FILLER_46_289
*1409 FILLER_46_29
*1410 FILLER_46_297
*1411 FILLER_46_3
*1412 FILLER_46_41
*1413 FILLER_46_53
*1414 FILLER_46_65
*1415 FILLER_46_77
*1416 FILLER_46_8
*1417 FILLER_46_83
*1418 FILLER_46_85
*1419 FILLER_46_97
*1420 FILLER_47_108
*1421 FILLER_47_11
*1422 FILLER_47_113
*1423 FILLER_47_125
*1424 FILLER_47_137
*1425 FILLER_47_149
*1426 FILLER_47_161
*1427 FILLER_47_167
*1428 FILLER_47_169
*1429 FILLER_47_181
*1430 FILLER_47_193
*1431 FILLER_47_205
*1432 FILLER_47_217
*1433 FILLER_47_223
*1434 FILLER_47_225
*1435 FILLER_47_237
*1436 FILLER_47_249
*1437 FILLER_47_261
*1438 FILLER_47_273
*1439 FILLER_47_279
*1440 FILLER_47_281
*1441 FILLER_47_293
*1442 FILLER_47_3
*1443 FILLER_47_33
*1444 FILLER_47_45
*1445 FILLER_47_49
*1446 FILLER_47_55
*1447 FILLER_47_57
*1448 FILLER_47_69
*1449 FILLER_47_81
*1450 FILLER_47_89
*1451 FILLER_48_109
*1452 FILLER_48_11
*1453 FILLER_48_121
*1454 FILLER_48_133
*1455 FILLER_48_139
*1456 FILLER_48_141
*1457 FILLER_48_153
*1458 FILLER_48_165
*1459 FILLER_48_17
*1460 FILLER_48_177
*1461 FILLER_48_189
*1462 FILLER_48_195
*1463 FILLER_48_197
*1464 FILLER_48_209
*1465 FILLER_48_221
*1466 FILLER_48_233
*1467 FILLER_48_24
*1468 FILLER_48_245
*1469 FILLER_48_251
*1470 FILLER_48_253
*1471 FILLER_48_265
*1472 FILLER_48_277
*1473 FILLER_48_289
*1474 FILLER_48_29
*1475 FILLER_48_297
*1476 FILLER_48_3
*1477 FILLER_48_35
*1478 FILLER_48_39
*1479 FILLER_48_51
*1480 FILLER_48_63
*1481 FILLER_48_75
*1482 FILLER_48_83
*1483 FILLER_48_85
*1484 FILLER_48_97
*1485 FILLER_49_101
*1486 FILLER_49_109
*1487 FILLER_49_113
*1488 FILLER_49_125
*1489 FILLER_49_13
*1490 FILLER_49_137
*1491 FILLER_49_149
*1492 FILLER_49_161
*1493 FILLER_49_167
*1494 FILLER_49_169
*1495 FILLER_49_181
*1496 FILLER_49_193
*1497 FILLER_49_205
*1498 FILLER_49_217
*1499 FILLER_49_223
*1500 FILLER_49_225
*1501 FILLER_49_237
*1502 FILLER_49_249
*1503 FILLER_49_25
*1504 FILLER_49_261
*1505 FILLER_49_273
*1506 FILLER_49_279
*1507 FILLER_49_281
*1508 FILLER_49_293
*1509 FILLER_49_3
*1510 FILLER_49_37
*1511 FILLER_49_44
*1512 FILLER_49_60
*1513 FILLER_49_72
*1514 FILLER_49_89
*1515 FILLER_4_109
*1516 FILLER_4_121
*1517 FILLER_4_133
*1518 FILLER_4_139
*1519 FILLER_4_141
*1520 FILLER_4_153
*1521 FILLER_4_165
*1522 FILLER_4_177
*1523 FILLER_4_189
*1524 FILLER_4_195
*1525 FILLER_4_197
*1526 FILLER_4_209
*1527 FILLER_4_221
*1528 FILLER_4_233
*1529 FILLER_4_24
*1530 FILLER_4_245
*1531 FILLER_4_251
*1532 FILLER_4_253
*1533 FILLER_4_265
*1534 FILLER_4_277
*1535 FILLER_4_289
*1536 FILLER_4_297
*1537 FILLER_4_3
*1538 FILLER_4_32
*1539 FILLER_4_54
*1540 FILLER_4_7
*1541 FILLER_4_74
*1542 FILLER_4_82
*1543 FILLER_4_85
*1544 FILLER_4_97
*1545 FILLER_50_109
*1546 FILLER_50_121
*1547 FILLER_50_133
*1548 FILLER_50_139
*1549 FILLER_50_14
*1550 FILLER_50_141
*1551 FILLER_50_153
*1552 FILLER_50_165
*1553 FILLER_50_177
*1554 FILLER_50_189
*1555 FILLER_50_195
*1556 FILLER_50_197
*1557 FILLER_50_209
*1558 FILLER_50_221
*1559 FILLER_50_233
*1560 FILLER_50_245
*1561 FILLER_50_251
*1562 FILLER_50_253
*1563 FILLER_50_26
*1564 FILLER_50_265
*1565 FILLER_50_277
*1566 FILLER_50_289
*1567 FILLER_50_29
*1568 FILLER_50_297
*1569 FILLER_50_3
*1570 FILLER_50_41
*1571 FILLER_50_53
*1572 FILLER_50_57
*1573 FILLER_50_69
*1574 FILLER_50_81
*1575 FILLER_50_85
*1576 FILLER_50_97
*1577 FILLER_51_105
*1578 FILLER_51_111
*1579 FILLER_51_113
*1580 FILLER_51_125
*1581 FILLER_51_137
*1582 FILLER_51_149
*1583 FILLER_51_161
*1584 FILLER_51_167
*1585 FILLER_51_169
*1586 FILLER_51_17
*1587 FILLER_51_181
*1588 FILLER_51_193
*1589 FILLER_51_205
*1590 FILLER_51_217
*1591 FILLER_51_223
*1592 FILLER_51_225
*1593 FILLER_51_237
*1594 FILLER_51_249
*1595 FILLER_51_261
*1596 FILLER_51_273