*SPEF "ieee 1481-1999"
*DESIGN "user_project_wrapper"
*DATE "11:11:11 Fri 11 11, 1111"
*VENDOR "OpenRCX"
*PROGRAM "Parallel Extraction"
*VERSION "1.0"
*DESIGN_FLOW "NAME_SCOPE LOCAL" "PIN_CAP NONE"
*DIVIDER /
*DELIMITER :
*BUS_DELIMITER []
*T_UNIT 1 NS
*C_UNIT 1 PF
*R_UNIT 1 OHM
*L_UNIT 1 HENRY

*NAME_MAP
*1 analog_io[0]
*2 analog_io[10]
*3 analog_io[11]
*4 analog_io[12]
*5 analog_io[13]
*6 analog_io[14]
*7 analog_io[15]
*8 analog_io[16]
*9 analog_io[17]
*10 analog_io[18]
*11 analog_io[19]
*12 analog_io[1]
*13 analog_io[20]
*14 analog_io[21]
*15 analog_io[22]
*16 analog_io[23]
*17 analog_io[24]
*18 analog_io[25]
*19 analog_io[26]
*20 analog_io[27]
*21 analog_io[28]
*22 analog_io[2]
*23 analog_io[3]
*24 analog_io[4]
*25 analog_io[5]
*26 analog_io[6]
*27 analog_io[7]
*28 analog_io[8]
*29 analog_io[9]
*30 io_in[0]
*31 io_in[10]
*32 io_in[11]
*33 io_in[12]
*34 io_in[13]
*35 io_in[14]
*36 io_in[15]
*37 io_in[16]
*38 io_in[17]
*39 io_in[18]
*40 io_in[19]
*41 io_in[1]
*42 io_in[20]
*43 io_in[21]
*44 io_in[22]
*45 io_in[23]
*46 io_in[24]
*47 io_in[25]
*48 io_in[26]
*49 io_in[27]
*50 io_in[28]
*51 io_in[29]
*52 io_in[2]
*53 io_in[30]
*54 io_in[31]
*55 io_in[32]
*56 io_in[33]
*57 io_in[34]
*58 io_in[35]
*59 io_in[36]
*60 io_in[37]
*61 io_in[3]
*62 io_in[4]
*63 io_in[5]
*64 io_in[6]
*65 io_in[7]
*66 io_in[8]
*67 io_in[9]
*68 io_oeb[0]
*69 io_oeb[10]
*70 io_oeb[11]
*71 io_oeb[12]
*72 io_oeb[13]
*73 io_oeb[14]
*74 io_oeb[15]
*75 io_oeb[16]
*76 io_oeb[17]
*77 io_oeb[18]
*78 io_oeb[19]
*79 io_oeb[1]
*80 io_oeb[20]
*81 io_oeb[21]
*82 io_oeb[22]
*83 io_oeb[23]
*84 io_oeb[24]
*85 io_oeb[25]
*86 io_oeb[26]
*87 io_oeb[27]
*88 io_oeb[28]
*89 io_oeb[29]
*90 io_oeb[2]
*91 io_oeb[30]
*92 io_oeb[31]
*93 io_oeb[32]
*94 io_oeb[33]
*95 io_oeb[34]
*96 io_oeb[35]
*97 io_oeb[36]
*98 io_oeb[37]
*99 io_oeb[3]
*100 io_oeb[4]
*101 io_oeb[5]
*102 io_oeb[6]
*103 io_oeb[7]
*104 io_oeb[8]
*105 io_oeb[9]
*106 io_out[0]
*107 io_out[10]
*108 io_out[11]
*109 io_out[12]
*110 io_out[13]
*111 io_out[14]
*112 io_out[15]
*113 io_out[16]
*114 io_out[17]
*115 io_out[18]
*116 io_out[19]
*117 io_out[1]
*118 io_out[20]
*119 io_out[21]
*120 io_out[22]
*121 io_out[23]
*122 io_out[24]
*123 io_out[25]
*124 io_out[26]
*125 io_out[27]
*126 io_out[28]
*127 io_out[29]
*128 io_out[2]
*129 io_out[30]
*130 io_out[31]
*131 io_out[32]
*132 io_out[33]
*133 io_out[34]
*134 io_out[35]
*135 io_out[36]
*136 io_out[37]
*137 io_out[3]
*138 io_out[4]
*139 io_out[5]
*140 io_out[6]
*141 io_out[7]
*142 io_out[8]
*143 io_out[9]
*144 la_data_in[0]
*145 la_data_in[100]
*146 la_data_in[101]
*147 la_data_in[102]
*148 la_data_in[103]
*149 la_data_in[104]
*150 la_data_in[105]
*151 la_data_in[106]
*152 la_data_in[107]
*153 la_data_in[108]
*154 la_data_in[109]
*155 la_data_in[10]
*156 la_data_in[110]
*157 la_data_in[111]
*158 la_data_in[112]
*159 la_data_in[113]
*160 la_data_in[114]
*161 la_data_in[115]
*162 la_data_in[116]
*163 la_data_in[117]
*164 la_data_in[118]
*165 la_data_in[119]
*166 la_data_in[11]
*167 la_data_in[120]
*168 la_data_in[121]
*169 la_data_in[122]
*170 la_data_in[123]
*171 la_data_in[124]
*172 la_data_in[125]
*173 la_data_in[126]
*174 la_data_in[127]
*175 la_data_in[12]
*176 la_data_in[13]
*177 la_data_in[14]
*178 la_data_in[15]
*179 la_data_in[16]
*180 la_data_in[17]
*181 la_data_in[18]
*182 la_data_in[19]
*183 la_data_in[1]
*184 la_data_in[20]
*185 la_data_in[21]
*186 la_data_in[22]
*187 la_data_in[23]
*188 la_data_in[24]
*189 la_data_in[25]
*190 la_data_in[26]
*191 la_data_in[27]
*192 la_data_in[28]
*193 la_data_in[29]
*194 la_data_in[2]
*195 la_data_in[30]
*196 la_data_in[31]
*197 la_data_in[32]
*198 la_data_in[33]
*199 la_data_in[34]
*200 la_data_in[35]
*201 la_data_in[36]
*202 la_data_in[37]
*203 la_data_in[38]
*204 la_data_in[39]
*205 la_data_in[3]
*206 la_data_in[40]
*207 la_data_in[41]
*208 la_data_in[42]
*209 la_data_in[43]
*210 la_data_in[44]
*211 la_data_in[45]
*212 la_data_in[46]
*213 la_data_in[47]
*214 la_data_in[48]
*215 la_data_in[49]
*216 la_data_in[4]
*217 la_data_in[50]
*218 la_data_in[51]
*219 la_data_in[52]
*220 la_data_in[53]
*221 la_data_in[54]
*222 la_data_in[55]
*223 la_data_in[56]
*224 la_data_in[57]
*225 la_data_in[58]
*226 la_data_in[59]
*227 la_data_in[5]
*228 la_data_in[60]
*229 la_data_in[61]
*230 la_data_in[62]
*231 la_data_in[63]
*232 la_data_in[64]
*233 la_data_in[65]
*234 la_data_in[66]
*235 la_data_in[67]
*236 la_data_in[68]
*237 la_data_in[69]
*238 la_data_in[6]
*239 la_data_in[70]
*240 la_data_in[71]
*241 la_data_in[72]
*242 la_data_in[73]
*243 la_data_in[74]
*244 la_data_in[75]
*245 la_data_in[76]
*246 la_data_in[77]
*247 la_data_in[78]
*248 la_data_in[79]
*249 la_data_in[7]
*250 la_data_in[80]
*251 la_data_in[81]
*252 la_data_in[82]
*253 la_data_in[83]
*254 la_data_in[84]
*255 la_data_in[85]
*256 la_data_in[86]
*257 la_data_in[87]
*258 la_data_in[88]
*259 la_data_in[89]
*260 la_data_in[8]
*261 la_data_in[90]
*262 la_data_in[91]
*263 la_data_in[92]
*264 la_data_in[93]
*265 la_data_in[94]
*266 la_data_in[95]
*267 la_data_in[96]
*268 la_data_in[97]
*269 la_data_in[98]
*270 la_data_in[99]
*271 la_data_in[9]
*272 la_data_out[0]
*273 la_data_out[100]
*274 la_data_out[101]
*275 la_data_out[102]
*276 la_data_out[103]
*277 la_data_out[104]
*278 la_data_out[105]
*279 la_data_out[106]
*280 la_data_out[107]
*281 la_data_out[108]
*282 la_data_out[109]
*283 la_data_out[10]
*284 la_data_out[110]
*285 la_data_out[111]
*286 la_data_out[112]
*287 la_data_out[113]
*288 la_data_out[114]
*289 la_data_out[115]
*290 la_data_out[116]
*291 la_data_out[117]
*292 la_data_out[118]
*293 la_data_out[119]
*294 la_data_out[11]
*295 la_data_out[120]
*296 la_data_out[121]
*297 la_data_out[122]
*298 la_data_out[123]
*299 la_data_out[124]
*300 la_data_out[125]
*301 la_data_out[126]
*302 la_data_out[127]
*303 la_data_out[12]
*304 la_data_out[13]
*305 la_data_out[14]
*306 la_data_out[15]
*307 la_data_out[16]
*308 la_data_out[17]
*309 la_data_out[18]
*310 la_data_out[19]
*311 la_data_out[1]
*312 la_data_out[20]
*313 la_data_out[21]
*314 la_data_out[22]
*315 la_data_out[23]
*316 la_data_out[24]
*317 la_data_out[25]
*318 la_data_out[26]
*319 la_data_out[27]
*320 la_data_out[28]
*321 la_data_out[29]
*322 la_data_out[2]
*323 la_data_out[30]
*324 la_data_out[31]
*325 la_data_out[32]
*326 la_data_out[33]
*327 la_data_out[34]
*328 la_data_out[35]
*329 la_data_out[36]
*330 la_data_out[37]
*331 la_data_out[38]
*332 la_data_out[39]
*333 la_data_out[3]
*334 la_data_out[40]
*335 la_data_out[41]
*336 la_data_out[42]
*337 la_data_out[43]
*338 la_data_out[44]
*339 la_data_out[45]
*340 la_data_out[46]
*341 la_data_out[47]
*342 la_data_out[48]
*343 la_data_out[49]
*344 la_data_out[4]
*345 la_data_out[50]
*346 la_data_out[51]
*347 la_data_out[52]
*348 la_data_out[53]
*349 la_data_out[54]
*350 la_data_out[55]
*351 la_data_out[56]
*352 la_data_out[57]
*353 la_data_out[58]
*354 la_data_out[59]
*355 la_data_out[5]
*356 la_data_out[60]
*357 la_data_out[61]
*358 la_data_out[62]
*359 la_data_out[63]
*360 la_data_out[64]
*361 la_data_out[65]
*362 la_data_out[66]
*363 la_data_out[67]
*364 la_data_out[68]
*365 la_data_out[69]
*366 la_data_out[6]
*367 la_data_out[70]
*368 la_data_out[71]
*369 la_data_out[72]
*370 la_data_out[73]
*371 la_data_out[74]
*372 la_data_out[75]
*373 la_data_out[76]
*374 la_data_out[77]
*375 la_data_out[78]
*376 la_data_out[79]
*377 la_data_out[7]
*378 la_data_out[80]
*379 la_data_out[81]
*380 la_data_out[82]
*381 la_data_out[83]
*382 la_data_out[84]
*383 la_data_out[85]
*384 la_data_out[86]
*385 la_data_out[87]
*386 la_data_out[88]
*387 la_data_out[89]
*388 la_data_out[8]
*389 la_data_out[90]
*390 la_data_out[91]
*391 la_data_out[92]
*392 la_data_out[93]
*393 la_data_out[94]
*394 la_data_out[95]
*395 la_data_out[96]
*396 la_data_out[97]
*397 la_data_out[98]
*398 la_data_out[99]
*399 la_data_out[9]
*400 la_oenb[0]
*401 la_oenb[100]
*402 la_oenb[101]
*403 la_oenb[102]
*404 la_oenb[103]
*405 la_oenb[104]
*406 la_oenb[105]
*407 la_oenb[106]
*408 la_oenb[107]
*409 la_oenb[108]
*410 la_oenb[109]
*411 la_oenb[10]
*412 la_oenb[110]
*413 la_oenb[111]
*414 la_oenb[112]
*415 la_oenb[113]
*416 la_oenb[114]
*417 la_oenb[115]
*418 la_oenb[116]
*419 la_oenb[117]
*420 la_oenb[118]
*421 la_oenb[119]
*422 la_oenb[11]
*423 la_oenb[120]
*424 la_oenb[121]
*425 la_oenb[122]
*426 la_oenb[123]
*427 la_oenb[124]
*428 la_oenb[125]
*429 la_oenb[126]
*430 la_oenb[127]
*431 la_oenb[12]
*432 la_oenb[13]
*433 la_oenb[14]
*434 la_oenb[15]
*435 la_oenb[16]
*436 la_oenb[17]
*437 la_oenb[18]
*438 la_oenb[19]
*439 la_oenb[1]
*440 la_oenb[20]
*441 la_oenb[21]
*442 la_oenb[22]
*443 la_oenb[23]
*444 la_oenb[24]
*445 la_oenb[25]
*446 la_oenb[26]
*447 la_oenb[27]
*448 la_oenb[28]
*449 la_oenb[29]
*450 la_oenb[2]
*451 la_oenb[30]
*452 la_oenb[31]
*453 la_oenb[32]
*454 la_oenb[33]
*455 la_oenb[34]
*456 la_oenb[35]
*457 la_oenb[36]
*458 la_oenb[37]
*459 la_oenb[38]
*460 la_oenb[39]
*461 la_oenb[3]
*462 la_oenb[40]
*463 la_oenb[41]
*464 la_oenb[42]
*465 la_oenb[43]
*466 la_oenb[44]
*467 la_oenb[45]
*468 la_oenb[46]
*469 la_oenb[47]
*470 la_oenb[48]
*471 la_oenb[49]
*472 la_oenb[4]
*473 la_oenb[50]
*474 la_oenb[51]
*475 la_oenb[52]
*476 la_oenb[53]
*477 la_oenb[54]
*478 la_oenb[55]
*479 la_oenb[56]
*480 la_oenb[57]
*481 la_oenb[58]
*482 la_oenb[59]
*483 la_oenb[5]
*484 la_oenb[60]
*485 la_oenb[61]
*486 la_oenb[62]
*487 la_oenb[63]
*488 la_oenb[64]
*489 la_oenb[65]
*490 la_oenb[66]
*491 la_oenb[67]
*492 la_oenb[68]
*493 la_oenb[69]
*494 la_oenb[6]
*495 la_oenb[70]
*496 la_oenb[71]
*497 la_oenb[72]
*498 la_oenb[73]
*499 la_oenb[74]
*500 la_oenb[75]
*501 la_oenb[76]
*502 la_oenb[77]
*503 la_oenb[78]
*504 la_oenb[79]
*505 la_oenb[7]
*506 la_oenb[80]
*507 la_oenb[81]
*508 la_oenb[82]
*509 la_oenb[83]
*510 la_oenb[84]
*511 la_oenb[85]
*512 la_oenb[86]
*513 la_oenb[87]
*514 la_oenb[88]
*515 la_oenb[89]
*516 la_oenb[8]
*517 la_oenb[90]
*518 la_oenb[91]
*519 la_oenb[92]
*520 la_oenb[93]
*521 la_oenb[94]
*522 la_oenb[95]
*523 la_oenb[96]
*524 la_oenb[97]
*525 la_oenb[98]
*526 la_oenb[99]
*527 la_oenb[9]
*528 user_clock2
*529 user_irq[0]
*530 user_irq[1]
*531 user_irq[2]
*540 wb_clk_i
*541 wb_rst_i
*542 wbs_ack_o
*543 wbs_adr_i[0]
*544 wbs_adr_i[10]
*545 wbs_adr_i[11]
*546 wbs_adr_i[12]
*547 wbs_adr_i[13]
*548 wbs_adr_i[14]
*549 wbs_adr_i[15]
*550 wbs_adr_i[16]
*551 wbs_adr_i[17]
*552 wbs_adr_i[18]
*553 wbs_adr_i[19]
*554 wbs_adr_i[1]
*555 wbs_adr_i[20]
*556 wbs_adr_i[21]
*557 wbs_adr_i[22]
*558 wbs_adr_i[23]
*559 wbs_adr_i[24]
*560 wbs_adr_i[25]
*561 wbs_adr_i[26]
*562 wbs_adr_i[27]
*563 wbs_adr_i[28]
*564 wbs_adr_i[29]
*565 wbs_adr_i[2]
*566 wbs_adr_i[30]
*567 wbs_adr_i[31]
*568 wbs_adr_i[3]
*569 wbs_adr_i[4]
*570 wbs_adr_i[5]
*571 wbs_adr_i[6]
*572 wbs_adr_i[7]
*573 wbs_adr_i[8]
*574 wbs_adr_i[9]
*575 wbs_cyc_i
*576 wbs_dat_i[0]
*577 wbs_dat_i[10]
*578 wbs_dat_i[11]
*579 wbs_dat_i[12]
*580 wbs_dat_i[13]
*581 wbs_dat_i[14]
*582 wbs_dat_i[15]
*583 wbs_dat_i[16]
*584 wbs_dat_i[17]
*585 wbs_dat_i[18]
*586 wbs_dat_i[19]
*587 wbs_dat_i[1]
*588 wbs_dat_i[20]
*589 wbs_dat_i[21]
*590 wbs_dat_i[22]
*591 wbs_dat_i[23]
*592 wbs_dat_i[24]
*593 wbs_dat_i[25]
*594 wbs_dat_i[26]
*595 wbs_dat_i[27]
*596 wbs_dat_i[28]
*597 wbs_dat_i[29]
*598 wbs_dat_i[2]
*599 wbs_dat_i[30]
*600 wbs_dat_i[31]
*601 wbs_dat_i[3]
*602 wbs_dat_i[4]
*603 wbs_dat_i[5]
*604 wbs_dat_i[6]
*605 wbs_dat_i[7]
*606 wbs_dat_i[8]
*607 wbs_dat_i[9]
*608 wbs_dat_o[0]
*609 wbs_dat_o[10]
*610 wbs_dat_o[11]
*611 wbs_dat_o[12]
*612 wbs_dat_o[13]
*613 wbs_dat_o[14]
*614 wbs_dat_o[15]
*615 wbs_dat_o[16]
*616 wbs_dat_o[17]
*617 wbs_dat_o[18]
*618 wbs_dat_o[19]
*619 wbs_dat_o[1]
*620 wbs_dat_o[20]
*621 wbs_dat_o[21]
*622 wbs_dat_o[22]
*623 wbs_dat_o[23]
*624 wbs_dat_o[24]
*625 wbs_dat_o[25]
*626 wbs_dat_o[26]
*627 wbs_dat_o[27]
*628 wbs_dat_o[28]
*629 wbs_dat_o[29]
*630 wbs_dat_o[2]
*631 wbs_dat_o[30]
*632 wbs_dat_o[31]
*633 wbs_dat_o[3]
*634 wbs_dat_o[4]
*635 wbs_dat_o[5]
*636 wbs_dat_o[6]
*637 wbs_dat_o[7]
*638 wbs_dat_o[8]
*639 wbs_dat_o[9]
*640 wbs_sel_i[0]
*641 wbs_sel_i[1]
*642 wbs_sel_i[2]
*643 wbs_sel_i[3]
*644 wbs_stb_i
*645 wbs_we_i
*646 sc_clk_in
*647 sc_clk_out
*648 sc_data_in
*649 sc_data_out
*650 sc_latch_out
*651 sc_scan_out
*652 sw_000_clk_out
*653 sw_000_data_out
*654 sw_000_latch_out
*655 sw_000_module_data_in\[0\]
*656 sw_000_module_data_in\[1\]
*657 sw_000_module_data_in\[2\]
*658 sw_000_module_data_in\[3\]
*659 sw_000_module_data_in\[4\]
*660 sw_000_module_data_in\[5\]
*661 sw_000_module_data_in\[6\]
*662 sw_000_module_data_in\[7\]
*663 sw_000_module_data_out\[0\]
*664 sw_000_module_data_out\[1\]
*665 sw_000_module_data_out\[2\]
*666 sw_000_module_data_out\[3\]
*667 sw_000_module_data_out\[4\]
*668 sw_000_module_data_out\[5\]
*669 sw_000_module_data_out\[6\]
*670 sw_000_module_data_out\[7\]
*671 sw_000_scan_out
*672 sw_001_clk_out
*673 sw_001_data_out
*674 sw_001_latch_out
*675 sw_001_module_data_in\[0\]
*676 sw_001_module_data_in\[1\]
*677 sw_001_module_data_in\[2\]
*678 sw_001_module_data_in\[3\]
*679 sw_001_module_data_in\[4\]
*680 sw_001_module_data_in\[5\]
*681 sw_001_module_data_in\[6\]
*682 sw_001_module_data_in\[7\]
*683 sw_001_module_data_out\[0\]
*684 sw_001_module_data_out\[1\]
*685 sw_001_module_data_out\[2\]
*686 sw_001_module_data_out\[3\]
*687 sw_001_module_data_out\[4\]
*688 sw_001_module_data_out\[5\]
*689 sw_001_module_data_out\[6\]
*690 sw_001_module_data_out\[7\]
*691 sw_001_scan_out
*692 sw_002_clk_out
*693 sw_002_data_out
*694 sw_002_latch_out
*695 sw_002_module_data_in\[0\]
*696 sw_002_module_data_in\[1\]
*697 sw_002_module_data_in\[2\]
*698 sw_002_module_data_in\[3\]
*699 sw_002_module_data_in\[4\]
*700 sw_002_module_data_in\[5\]
*701 sw_002_module_data_in\[6\]
*702 sw_002_module_data_in\[7\]
*703 sw_002_module_data_out\[0\]
*704 sw_002_module_data_out\[1\]
*705 sw_002_module_data_out\[2\]
*706 sw_002_module_data_out\[3\]
*707 sw_002_module_data_out\[4\]
*708 sw_002_module_data_out\[5\]
*709 sw_002_module_data_out\[6\]
*710 sw_002_module_data_out\[7\]
*711 sw_002_scan_out
*712 sw_003_clk_out
*713 sw_003_data_out
*714 sw_003_latch_out
*715 sw_003_module_data_in\[0\]
*716 sw_003_module_data_in\[1\]
*717 sw_003_module_data_in\[2\]
*718 sw_003_module_data_in\[3\]
*719 sw_003_module_data_in\[4\]
*720 sw_003_module_data_in\[5\]
*721 sw_003_module_data_in\[6\]
*722 sw_003_module_data_in\[7\]
*723 sw_003_module_data_out\[0\]
*724 sw_003_module_data_out\[1\]
*725 sw_003_module_data_out\[2\]
*726 sw_003_module_data_out\[3\]
*727 sw_003_module_data_out\[4\]
*728 sw_003_module_data_out\[5\]
*729 sw_003_module_data_out\[6\]
*730 sw_003_module_data_out\[7\]
*731 sw_003_scan_out
*732 sw_004_clk_out
*733 sw_004_data_out
*734 sw_004_latch_out
*735 sw_004_module_data_in\[0\]
*736 sw_004_module_data_in\[1\]
*737 sw_004_module_data_in\[2\]
*738 sw_004_module_data_in\[3\]
*739 sw_004_module_data_in\[4\]
*740 sw_004_module_data_in\[5\]
*741 sw_004_module_data_in\[6\]
*742 sw_004_module_data_in\[7\]
*743 sw_004_module_data_out\[0\]
*744 sw_004_module_data_out\[1\]
*745 sw_004_module_data_out\[2\]
*746 sw_004_module_data_out\[3\]
*747 sw_004_module_data_out\[4\]
*748 sw_004_module_data_out\[5\]
*749 sw_004_module_data_out\[6\]
*750 sw_004_module_data_out\[7\]
*751 sw_004_scan_out
*752 sw_005_clk_out
*753 sw_005_data_out
*754 sw_005_latch_out
*755 sw_005_module_data_in\[0\]
*756 sw_005_module_data_in\[1\]
*757 sw_005_module_data_in\[2\]
*758 sw_005_module_data_in\[3\]
*759 sw_005_module_data_in\[4\]
*760 sw_005_module_data_in\[5\]
*761 sw_005_module_data_in\[6\]
*762 sw_005_module_data_in\[7\]
*763 sw_005_module_data_out\[0\]
*764 sw_005_module_data_out\[1\]
*765 sw_005_module_data_out\[2\]
*766 sw_005_module_data_out\[3\]
*767 sw_005_module_data_out\[4\]
*768 sw_005_module_data_out\[5\]
*769 sw_005_module_data_out\[6\]
*770 sw_005_module_data_out\[7\]
*771 sw_005_scan_out
*772 sw_006_clk_out
*773 sw_006_data_out
*774 sw_006_latch_out
*775 sw_006_module_data_in\[0\]
*776 sw_006_module_data_in\[1\]
*777 sw_006_module_data_in\[2\]
*778 sw_006_module_data_in\[3\]
*779 sw_006_module_data_in\[4\]
*780 sw_006_module_data_in\[5\]
*781 sw_006_module_data_in\[6\]
*782 sw_006_module_data_in\[7\]
*783 sw_006_module_data_out\[0\]
*784 sw_006_module_data_out\[1\]
*785 sw_006_module_data_out\[2\]
*786 sw_006_module_data_out\[3\]
*787 sw_006_module_data_out\[4\]
*788 sw_006_module_data_out\[5\]
*789 sw_006_module_data_out\[6\]
*790 sw_006_module_data_out\[7\]
*791 sw_006_scan_out
*792 sw_007_clk_out
*793 sw_007_data_out
*794 sw_007_latch_out
*795 sw_007_module_data_in\[0\]
*796 sw_007_module_data_in\[1\]
*797 sw_007_module_data_in\[2\]
*798 sw_007_module_data_in\[3\]
*799 sw_007_module_data_in\[4\]
*800 sw_007_module_data_in\[5\]
*801 sw_007_module_data_in\[6\]
*802 sw_007_module_data_in\[7\]
*803 sw_007_module_data_out\[0\]
*804 sw_007_module_data_out\[1\]
*805 sw_007_module_data_out\[2\]
*806 sw_007_module_data_out\[3\]
*807 sw_007_module_data_out\[4\]
*808 sw_007_module_data_out\[5\]
*809 sw_007_module_data_out\[6\]
*810 sw_007_module_data_out\[7\]
*811 sw_007_scan_out
*812 sw_008_clk_out
*813 sw_008_data_out
*814 sw_008_latch_out
*815 sw_008_module_data_in\[0\]
*816 sw_008_module_data_in\[1\]
*817 sw_008_module_data_in\[2\]
*818 sw_008_module_data_in\[3\]
*819 sw_008_module_data_in\[4\]
*820 sw_008_module_data_in\[5\]
*821 sw_008_module_data_in\[6\]
*822 sw_008_module_data_in\[7\]
*823 sw_008_module_data_out\[0\]
*824 sw_008_module_data_out\[1\]
*825 sw_008_module_data_out\[2\]
*826 sw_008_module_data_out\[3\]
*827 sw_008_module_data_out\[4\]
*828 sw_008_module_data_out\[5\]
*829 sw_008_module_data_out\[6\]
*830 sw_008_module_data_out\[7\]
*831 sw_008_scan_out
*832 sw_009_clk_out
*833 sw_009_data_out
*834 sw_009_latch_out
*835 sw_009_module_data_in\[0\]
*836 sw_009_module_data_in\[1\]
*837 sw_009_module_data_in\[2\]
*838 sw_009_module_data_in\[3\]
*839 sw_009_module_data_in\[4\]
*840 sw_009_module_data_in\[5\]
*841 sw_009_module_data_in\[6\]
*842 sw_009_module_data_in\[7\]
*843 sw_009_module_data_out\[0\]
*844 sw_009_module_data_out\[1\]
*845 sw_009_module_data_out\[2\]
*846 sw_009_module_data_out\[3\]
*847 sw_009_module_data_out\[4\]
*848 sw_009_module_data_out\[5\]
*849 sw_009_module_data_out\[6\]
*850 sw_009_module_data_out\[7\]
*851 sw_009_scan_out
*852 sw_010_clk_out
*853 sw_010_data_out
*854 sw_010_latch_out
*855 sw_010_module_data_in\[0\]
*856 sw_010_module_data_in\[1\]
*857 sw_010_module_data_in\[2\]
*858 sw_010_module_data_in\[3\]
*859 sw_010_module_data_in\[4\]
*860 sw_010_module_data_in\[5\]
*861 sw_010_module_data_in\[6\]
*862 sw_010_module_data_in\[7\]
*863 sw_010_module_data_out\[0\]
*864 sw_010_module_data_out\[1\]
*865 sw_010_module_data_out\[2\]
*866 sw_010_module_data_out\[3\]
*867 sw_010_module_data_out\[4\]
*868 sw_010_module_data_out\[5\]
*869 sw_010_module_data_out\[6\]
*870 sw_010_module_data_out\[7\]
*871 sw_010_scan_out
*872 sw_011_clk_out
*873 sw_011_data_out
*874 sw_011_latch_out
*875 sw_011_module_data_in\[0\]
*876 sw_011_module_data_in\[1\]
*877 sw_011_module_data_in\[2\]
*878 sw_011_module_data_in\[3\]
*879 sw_011_module_data_in\[4\]
*880 sw_011_module_data_in\[5\]
*881 sw_011_module_data_in\[6\]
*882 sw_011_module_data_in\[7\]
*883 sw_011_module_data_out\[0\]
*884 sw_011_module_data_out\[1\]
*885 sw_011_module_data_out\[2\]
*886 sw_011_module_data_out\[3\]
*887 sw_011_module_data_out\[4\]
*888 sw_011_module_data_out\[5\]
*889 sw_011_module_data_out\[6\]
*890 sw_011_module_data_out\[7\]
*891 sw_011_scan_out
*892 sw_012_clk_out
*893 sw_012_data_out
*894 sw_012_latch_out
*895 sw_012_module_data_in\[0\]
*896 sw_012_module_data_in\[1\]
*897 sw_012_module_data_in\[2\]
*898 sw_012_module_data_in\[3\]
*899 sw_012_module_data_in\[4\]
*900 sw_012_module_data_in\[5\]
*901 sw_012_module_data_in\[6\]
*902 sw_012_module_data_in\[7\]
*903 sw_012_module_data_out\[0\]
*904 sw_012_module_data_out\[1\]
*905 sw_012_module_data_out\[2\]
*906 sw_012_module_data_out\[3\]
*907 sw_012_module_data_out\[4\]
*908 sw_012_module_data_out\[5\]
*909 sw_012_module_data_out\[6\]
*910 sw_012_module_data_out\[7\]
*911 sw_012_scan_out
*912 sw_013_clk_out
*913 sw_013_data_out
*914 sw_013_latch_out
*915 sw_013_module_data_in\[0\]
*916 sw_013_module_data_in\[1\]
*917 sw_013_module_data_in\[2\]
*918 sw_013_module_data_in\[3\]
*919 sw_013_module_data_in\[4\]
*920 sw_013_module_data_in\[5\]
*921 sw_013_module_data_in\[6\]
*922 sw_013_module_data_in\[7\]
*923 sw_013_module_data_out\[0\]
*924 sw_013_module_data_out\[1\]
*925 sw_013_module_data_out\[2\]
*926 sw_013_module_data_out\[3\]
*927 sw_013_module_data_out\[4\]
*928 sw_013_module_data_out\[5\]
*929 sw_013_module_data_out\[6\]
*930 sw_013_module_data_out\[7\]
*931 sw_013_scan_out
*932 sw_014_clk_out
*933 sw_014_data_out
*934 sw_014_latch_out
*935 sw_014_module_data_in\[0\]
*936 sw_014_module_data_in\[1\]
*937 sw_014_module_data_in\[2\]
*938 sw_014_module_data_in\[3\]
*939 sw_014_module_data_in\[4\]
*940 sw_014_module_data_in\[5\]
*941 sw_014_module_data_in\[6\]
*942 sw_014_module_data_in\[7\]
*943 sw_014_module_data_out\[0\]
*944 sw_014_module_data_out\[1\]
*945 sw_014_module_data_out\[2\]
*946 sw_014_module_data_out\[3\]
*947 sw_014_module_data_out\[4\]
*948 sw_014_module_data_out\[5\]
*949 sw_014_module_data_out\[6\]
*950 sw_014_module_data_out\[7\]
*951 sw_014_scan_out
*952 sw_015_clk_out
*953 sw_015_data_out
*954 sw_015_latch_out
*955 sw_015_module_data_in\[0\]
*956 sw_015_module_data_in\[1\]
*957 sw_015_module_data_in\[2\]
*958 sw_015_module_data_in\[3\]
*959 sw_015_module_data_in\[4\]
*960 sw_015_module_data_in\[5\]
*961 sw_015_module_data_in\[6\]
*962 sw_015_module_data_in\[7\]
*963 sw_015_module_data_out\[0\]
*964 sw_015_module_data_out\[1\]
*965 sw_015_module_data_out\[2\]
*966 sw_015_module_data_out\[3\]
*967 sw_015_module_data_out\[4\]
*968 sw_015_module_data_out\[5\]
*969 sw_015_module_data_out\[6\]
*970 sw_015_module_data_out\[7\]
*971 sw_015_scan_out
*972 sw_016_clk_out
*973 sw_016_data_out
*974 sw_016_latch_out
*975 sw_016_module_data_in\[0\]
*976 sw_016_module_data_in\[1\]
*977 sw_016_module_data_in\[2\]
*978 sw_016_module_data_in\[3\]
*979 sw_016_module_data_in\[4\]
*980 sw_016_module_data_in\[5\]
*981 sw_016_module_data_in\[6\]
*982 sw_016_module_data_in\[7\]
*983 sw_016_module_data_out\[0\]
*984 sw_016_module_data_out\[1\]
*985 sw_016_module_data_out\[2\]
*986 sw_016_module_data_out\[3\]
*987 sw_016_module_data_out\[4\]
*988 sw_016_module_data_out\[5\]
*989 sw_016_module_data_out\[6\]
*990 sw_016_module_data_out\[7\]
*991 sw_016_scan_out
*992 sw_017_clk_out
*993 sw_017_data_out
*994 sw_017_latch_out
*995 sw_017_module_data_in\[0\]
*996 sw_017_module_data_in\[1\]
*997 sw_017_module_data_in\[2\]
*998 sw_017_module_data_in\[3\]
*999 sw_017_module_data_in\[4\]
*1000 sw_017_module_data_in\[5\]
*1001 sw_017_module_data_in\[6\]
*1002 sw_017_module_data_in\[7\]
*1003 sw_017_module_data_out\[0\]
*1004 sw_017_module_data_out\[1\]
*1005 sw_017_module_data_out\[2\]
*1006 sw_017_module_data_out\[3\]
*1007 sw_017_module_data_out\[4\]
*1008 sw_017_module_data_out\[5\]
*1009 sw_017_module_data_out\[6\]
*1010 sw_017_module_data_out\[7\]
*1011 sw_017_scan_out
*1012 sw_018_clk_out
*1013 sw_018_data_out
*1014 sw_018_latch_out
*1015 sw_018_module_data_in\[0\]
*1016 sw_018_module_data_in\[1\]
*1017 sw_018_module_data_in\[2\]
*1018 sw_018_module_data_in\[3\]
*1019 sw_018_module_data_in\[4\]
*1020 sw_018_module_data_in\[5\]
*1021 sw_018_module_data_in\[6\]
*1022 sw_018_module_data_in\[7\]
*1023 sw_018_module_data_out\[0\]
*1024 sw_018_module_data_out\[1\]
*1025 sw_018_module_data_out\[2\]
*1026 sw_018_module_data_out\[3\]
*1027 sw_018_module_data_out\[4\]
*1028 sw_018_module_data_out\[5\]
*1029 sw_018_module_data_out\[6\]
*1030 sw_018_module_data_out\[7\]
*1031 sw_018_scan_out
*1032 sw_019_clk_out
*1033 sw_019_data_out
*1034 sw_019_latch_out
*1035 sw_019_module_data_in\[0\]
*1036 sw_019_module_data_in\[1\]
*1037 sw_019_module_data_in\[2\]
*1038 sw_019_module_data_in\[3\]
*1039 sw_019_module_data_in\[4\]
*1040 sw_019_module_data_in\[5\]
*1041 sw_019_module_data_in\[6\]
*1042 sw_019_module_data_in\[7\]
*1043 sw_019_module_data_out\[0\]
*1044 sw_019_module_data_out\[1\]
*1045 sw_019_module_data_out\[2\]
*1046 sw_019_module_data_out\[3\]
*1047 sw_019_module_data_out\[4\]
*1048 sw_019_module_data_out\[5\]
*1049 sw_019_module_data_out\[6\]
*1050 sw_019_module_data_out\[7\]
*1051 sw_019_scan_out
*1052 sw_020_clk_out
*1053 sw_020_data_out
*1054 sw_020_latch_out
*1055 sw_020_module_data_in\[0\]
*1056 sw_020_module_data_in\[1\]
*1057 sw_020_module_data_in\[2\]
*1058 sw_020_module_data_in\[3\]
*1059 sw_020_module_data_in\[4\]
*1060 sw_020_module_data_in\[5\]
*1061 sw_020_module_data_in\[6\]
*1062 sw_020_module_data_in\[7\]
*1063 sw_020_module_data_out\[0\]
*1064 sw_020_module_data_out\[1\]
*1065 sw_020_module_data_out\[2\]
*1066 sw_020_module_data_out\[3\]
*1067 sw_020_module_data_out\[4\]
*1068 sw_020_module_data_out\[5\]
*1069 sw_020_module_data_out\[6\]
*1070 sw_020_module_data_out\[7\]
*1071 sw_020_scan_out
*1072 sw_021_clk_out
*1073 sw_021_data_out
*1074 sw_021_latch_out
*1075 sw_021_module_data_in\[0\]
*1076 sw_021_module_data_in\[1\]
*1077 sw_021_module_data_in\[2\]
*1078 sw_021_module_data_in\[3\]
*1079 sw_021_module_data_in\[4\]
*1080 sw_021_module_data_in\[5\]
*1081 sw_021_module_data_in\[6\]
*1082 sw_021_module_data_in\[7\]
*1083 sw_021_module_data_out\[0\]
*1084 sw_021_module_data_out\[1\]
*1085 sw_021_module_data_out\[2\]
*1086 sw_021_module_data_out\[3\]
*1087 sw_021_module_data_out\[4\]
*1088 sw_021_module_data_out\[5\]
*1089 sw_021_module_data_out\[6\]
*1090 sw_021_module_data_out\[7\]
*1091 sw_021_scan_out
*1092 sw_022_clk_out
*1093 sw_022_data_out
*1094 sw_022_latch_out
*1095 sw_022_module_data_in\[0\]
*1096 sw_022_module_data_in\[1\]
*1097 sw_022_module_data_in\[2\]
*1098 sw_022_module_data_in\[3\]
*1099 sw_022_module_data_in\[4\]
*1100 sw_022_module_data_in\[5\]
*1101 sw_022_module_data_in\[6\]
*1102 sw_022_module_data_in\[7\]
*1103 sw_022_module_data_out\[0\]
*1104 sw_022_module_data_out\[1\]
*1105 sw_022_module_data_out\[2\]
*1106 sw_022_module_data_out\[3\]
*1107 sw_022_module_data_out\[4\]
*1108 sw_022_module_data_out\[5\]
*1109 sw_022_module_data_out\[6\]
*1110 sw_022_module_data_out\[7\]
*1111 sw_022_scan_out
*1112 sw_023_clk_out
*1113 sw_023_data_out
*1114 sw_023_latch_out
*1115 sw_023_module_data_in\[0\]
*1116 sw_023_module_data_in\[1\]
*1117 sw_023_module_data_in\[2\]
*1118 sw_023_module_data_in\[3\]
*1119 sw_023_module_data_in\[4\]
*1120 sw_023_module_data_in\[5\]
*1121 sw_023_module_data_in\[6\]
*1122 sw_023_module_data_in\[7\]
*1123 sw_023_module_data_out\[0\]
*1124 sw_023_module_data_out\[1\]
*1125 sw_023_module_data_out\[2\]
*1126 sw_023_module_data_out\[3\]
*1127 sw_023_module_data_out\[4\]
*1128 sw_023_module_data_out\[5\]
*1129 sw_023_module_data_out\[6\]
*1130 sw_023_module_data_out\[7\]
*1131 sw_023_scan_out
*1132 sw_024_clk_out
*1133 sw_024_data_out
*1134 sw_024_latch_out
*1135 sw_024_module_data_in\[0\]
*1136 sw_024_module_data_in\[1\]
*1137 sw_024_module_data_in\[2\]
*1138 sw_024_module_data_in\[3\]
*1139 sw_024_module_data_in\[4\]
*1140 sw_024_module_data_in\[5\]
*1141 sw_024_module_data_in\[6\]
*1142 sw_024_module_data_in\[7\]
*1143 sw_024_module_data_out\[0\]
*1144 sw_024_module_data_out\[1\]
*1145 sw_024_module_data_out\[2\]
*1146 sw_024_module_data_out\[3\]
*1147 sw_024_module_data_out\[4\]
*1148 sw_024_module_data_out\[5\]
*1149 sw_024_module_data_out\[6\]
*1150 sw_024_module_data_out\[7\]
*1151 sw_024_scan_out
*1152 sw_025_clk_out
*1153 sw_025_data_out
*1154 sw_025_latch_out
*1155 sw_025_module_data_in\[0\]
*1156 sw_025_module_data_in\[1\]
*1157 sw_025_module_data_in\[2\]
*1158 sw_025_module_data_in\[3\]
*1159 sw_025_module_data_in\[4\]
*1160 sw_025_module_data_in\[5\]
*1161 sw_025_module_data_in\[6\]
*1162 sw_025_module_data_in\[7\]
*1163 sw_025_module_data_out\[0\]
*1164 sw_025_module_data_out\[1\]
*1165 sw_025_module_data_out\[2\]
*1166 sw_025_module_data_out\[3\]
*1167 sw_025_module_data_out\[4\]
*1168 sw_025_module_data_out\[5\]
*1169 sw_025_module_data_out\[6\]
*1170 sw_025_module_data_out\[7\]
*1171 sw_025_scan_out
*1172 sw_026_clk_out
*1173 sw_026_data_out
*1174 sw_026_latch_out
*1175 sw_026_module_data_in\[0\]
*1176 sw_026_module_data_in\[1\]
*1177 sw_026_module_data_in\[2\]
*1178 sw_026_module_data_in\[3\]
*1179 sw_026_module_data_in\[4\]
*1180 sw_026_module_data_in\[5\]
*1181 sw_026_module_data_in\[6\]
*1182 sw_026_module_data_in\[7\]
*1183 sw_026_module_data_out\[0\]
*1184 sw_026_module_data_out\[1\]
*1185 sw_026_module_data_out\[2\]
*1186 sw_026_module_data_out\[3\]
*1187 sw_026_module_data_out\[4\]
*1188 sw_026_module_data_out\[5\]
*1189 sw_026_module_data_out\[6\]
*1190 sw_026_module_data_out\[7\]
*1191 sw_026_scan_out
*1192 sw_027_clk_out
*1193 sw_027_data_out
*1194 sw_027_latch_out
*1195 sw_027_module_data_in\[0\]
*1196 sw_027_module_data_in\[1\]
*1197 sw_027_module_data_in\[2\]
*1198 sw_027_module_data_in\[3\]
*1199 sw_027_module_data_in\[4\]
*1200 sw_027_module_data_in\[5\]
*1201 sw_027_module_data_in\[6\]
*1202 sw_027_module_data_in\[7\]
*1203 sw_027_module_data_out\[0\]
*1204 sw_027_module_data_out\[1\]
*1205 sw_027_module_data_out\[2\]
*1206 sw_027_module_data_out\[3\]
*1207 sw_027_module_data_out\[4\]
*1208 sw_027_module_data_out\[5\]
*1209 sw_027_module_data_out\[6\]
*1210 sw_027_module_data_out\[7\]
*1211 sw_027_scan_out
*1212 sw_028_clk_out
*1213 sw_028_data_out
*1214 sw_028_latch_out
*1215 sw_028_module_data_in\[0\]
*1216 sw_028_module_data_in\[1\]
*1217 sw_028_module_data_in\[2\]
*1218 sw_028_module_data_in\[3\]
*1219 sw_028_module_data_in\[4\]
*1220 sw_028_module_data_in\[5\]
*1221 sw_028_module_data_in\[6\]
*1222 sw_028_module_data_in\[7\]
*1223 sw_028_module_data_out\[0\]
*1224 sw_028_module_data_out\[1\]
*1225 sw_028_module_data_out\[2\]
*1226 sw_028_module_data_out\[3\]
*1227 sw_028_module_data_out\[4\]
*1228 sw_028_module_data_out\[5\]
*1229 sw_028_module_data_out\[6\]
*1230 sw_028_module_data_out\[7\]
*1231 sw_028_scan_out
*1232 sw_029_latch_out
*1233 sw_029_module_data_in\[0\]
*1234 sw_029_module_data_in\[1\]
*1235 sw_029_module_data_in\[2\]
*1236 sw_029_module_data_in\[3\]