*SPEF "ieee 1481-1999"
*DESIGN "user_module_348195845106041428"
*DATE "11:11:11 Fri 11 11, 1111"
*VENDOR "OpenRCX"
*PROGRAM "Parallel Extraction"
*VERSION "1.0"
*DESIGN_FLOW "NAME_SCOPE LOCAL" "PIN_CAP NONE"
*DIVIDER /
*DELIMITER :
*BUS_DELIMITER []
*T_UNIT 1 NS
*C_UNIT 1 PF
*R_UNIT 1 OHM
*L_UNIT 1 HENRY

*NAME_MAP
*1 io_in[0]
*2 io_in[1]
*3 io_in[2]
*4 io_in[3]
*5 io_in[4]
*6 io_in[5]
*7 io_in[6]
*8 io_in[7]
*9 io_out[0]
*10 io_out[1]
*11 net3
*12 net4
*13 net5
*14 net6
*15 net7
*16 net8
*19 _00_
*20 _01_
*21 _02_
*22 _03_
*23 and1\.a
*24 and1\.b
*25 and2\.a
*26 and2\.b
*27 clknet_0_and1\.a
*28 clknet_0_and1\.b
*29 clknet_0_and2\.a
*30 clknet_0_and2\.b
*31 clknet_0_gate5\.out
*32 clknet_0_nand13\.b
*33 clknet_0_nand13\.out
*34 clknet_1_0__leaf_and1\.a
*35 clknet_1_0__leaf_and1\.b
*36 clknet_1_0__leaf_and2\.a
*37 clknet_1_0__leaf_and2\.b
*38 clknet_1_0__leaf_gate5\.out
*39 clknet_1_0__leaf_nand13\.b
*40 clknet_1_0__leaf_nand13\.out
*41 clknet_1_1__leaf_and1\.a
*42 clknet_1_1__leaf_and1\.b
*43 clknet_1_1__leaf_and2\.a
*44 clknet_1_1__leaf_and2\.b
*45 clknet_1_1__leaf_gate5\.out
*46 clknet_1_1__leaf_nand13\.b
*47 clknet_1_1__leaf_nand13\.out
*48 gate5\.out
*49 nand13\.b
*50 nand13\.out
*51 net1
*52 net2
*53 FILLER_0_109
*54 FILLER_0_113
*55 FILLER_0_125
*56 FILLER_0_137
*57 FILLER_0_141
*58 FILLER_0_15
*59 FILLER_0_153
*60 FILLER_0_165
*61 FILLER_0_169
*62 FILLER_0_181
*63 FILLER_0_193
*64 FILLER_0_197
*65 FILLER_0_209
*66 FILLER_0_221
*67 FILLER_0_225
*68 FILLER_0_237
*69 FILLER_0_249
*70 FILLER_0_253
*71 FILLER_0_265
*72 FILLER_0_27
*73 FILLER_0_277
*74 FILLER_0_281
*75 FILLER_0_29
*76 FILLER_0_293
*77 FILLER_0_3
*78 FILLER_0_41
*79 FILLER_0_53
*80 FILLER_0_57
*81 FILLER_0_69
*82 FILLER_0_81
*83 FILLER_0_85
*84 FILLER_0_97
*85 FILLER_10_109
*86 FILLER_10_121
*87 FILLER_10_133
*88 FILLER_10_139
*89 FILLER_10_141
*90 FILLER_10_153
*91 FILLER_10_165
*92 FILLER_10_177
*93 FILLER_10_189
*94 FILLER_10_195
*95 FILLER_10_197
*96 FILLER_10_209
*97 FILLER_10_221
*98 FILLER_10_233
*99 FILLER_10_24
*100 FILLER_10_245
*101 FILLER_10_251
*102 FILLER_10_253
*103 FILLER_10_265
*104 FILLER_10_277
*105 FILLER_10_289
*106 FILLER_10_29
*107 FILLER_10_297
*108 FILLER_10_3
*109 FILLER_10_53
*110 FILLER_10_65
*111 FILLER_10_77
*112 FILLER_10_83
*113 FILLER_10_85
*114 FILLER_10_97
*115 FILLER_11_10
*116 FILLER_11_105
*117 FILLER_11_111
*118 FILLER_11_113
*119 FILLER_11_125
*120 FILLER_11_137
*121 FILLER_11_149
*122 FILLER_11_161
*123 FILLER_11_167
*124 FILLER_11_169
*125 FILLER_11_181
*126 FILLER_11_193
*127 FILLER_11_205
*128 FILLER_11_217
*129 FILLER_11_223
*130 FILLER_11_225
*131 FILLER_11_237
*132 FILLER_11_249
*133 FILLER_11_261
*134 FILLER_11_273
*135 FILLER_11_279
*136 FILLER_11_281
*137 FILLER_11_293
*138 FILLER_11_36
*139 FILLER_11_48
*140 FILLER_11_57
*141 FILLER_11_69
*142 FILLER_11_81
*143 FILLER_11_93
*144 FILLER_12_109
*145 FILLER_12_121
*146 FILLER_12_133
*147 FILLER_12_139
*148 FILLER_12_141
*149 FILLER_12_153
*150 FILLER_12_165
*151 FILLER_12_177
*152 FILLER_12_189
*153 FILLER_12_195
*154 FILLER_12_197
*155 FILLER_12_209
*156 FILLER_12_221
*157 FILLER_12_233
*158 FILLER_12_24
*159 FILLER_12_245
*160 FILLER_12_251
*161 FILLER_12_253
*162 FILLER_12_265
*163 FILLER_12_277
*164 FILLER_12_289
*165 FILLER_12_29
*166 FILLER_12_297
*167 FILLER_12_3
*168 FILLER_12_53
*169 FILLER_12_65
*170 FILLER_12_77
*171 FILLER_12_83
*172 FILLER_12_85
*173 FILLER_12_97
*174 FILLER_13_105
*175 FILLER_13_111
*176 FILLER_13_113
*177 FILLER_13_125
*178 FILLER_13_137
*179 FILLER_13_149
*180 FILLER_13_161
*181 FILLER_13_167
*182 FILLER_13_169
*183 FILLER_13_181
*184 FILLER_13_193
*185 FILLER_13_205
*186 FILLER_13_217
*187 FILLER_13_223
*188 FILLER_13_225
*189 FILLER_13_237
*190 FILLER_13_249
*191 FILLER_13_261
*192 FILLER_13_27
*193 FILLER_13_273
*194 FILLER_13_279
*195 FILLER_13_281
*196 FILLER_13_293
*197 FILLER_13_3
*198 FILLER_13_51
*199 FILLER_13_55
*200 FILLER_13_57
*201 FILLER_13_69
*202 FILLER_13_81
*203 FILLER_13_93
*204 FILLER_14_109
*205 FILLER_14_121
*206 FILLER_14_133
*207 FILLER_14_139
*208 FILLER_14_141
*209 FILLER_14_153
*210 FILLER_14_165
*211 FILLER_14_177
*212 FILLER_14_189
*213 FILLER_14_195
*214 FILLER_14_197
*215 FILLER_14_209
*216 FILLER_14_221
*217 FILLER_14_233
*218 FILLER_14_24
*219 FILLER_14_245
*220 FILLER_14_251
*221 FILLER_14_253
*222 FILLER_14_265
*223 FILLER_14_277
*224 FILLER_14_289
*225 FILLER_14_297
*226 FILLER_14_3
*227 FILLER_14_37
*228 FILLER_14_48
*229 FILLER_14_57
*230 FILLER_14_69
*231 FILLER_14_81
*232 FILLER_14_85
*233 FILLER_14_97
*234 FILLER_15_108
*235 FILLER_15_11
*236 FILLER_15_113
*237 FILLER_15_125
*238 FILLER_15_137
*239 FILLER_15_149
*240 FILLER_15_15
*241 FILLER_15_161
*242 FILLER_15_167
*243 FILLER_15_169
*244 FILLER_15_181
*245 FILLER_15_193
*246 FILLER_15_205
*247 FILLER_15_217
*248 FILLER_15_223
*249 FILLER_15_225
*250 FILLER_15_237
*251 FILLER_15_249
*252 FILLER_15_261
*253 FILLER_15_273
*254 FILLER_15_279
*255 FILLER_15_281
*256 FILLER_15_293
*257 FILLER_15_36
*258 FILLER_15_46
*259 FILLER_15_54
*260 FILLER_15_60
*261 FILLER_15_72
*262 FILLER_15_84
*263 FILLER_15_96
*264 FILLER_16_109
*265 FILLER_16_121
*266 FILLER_16_133
*267 FILLER_16_139
*268 FILLER_16_141
*269 FILLER_16_153
*270 FILLER_16_165
*271 FILLER_16_177
*272 FILLER_16_189
*273 FILLER_16_195
*274 FILLER_16_197
*275 FILLER_16_209
*276 FILLER_16_221
*277 FILLER_16_233
*278 FILLER_16_24
*279 FILLER_16_245
*280 FILLER_16_251
*281 FILLER_16_253
*282 FILLER_16_265
*283 FILLER_16_277
*284 FILLER_16_289
*285 FILLER_16_29
*286 FILLER_16_297
*287 FILLER_16_3
*288 FILLER_16_53
*289 FILLER_16_65
*290 FILLER_16_77
*291 FILLER_16_83
*292 FILLER_16_85
*293 FILLER_16_97
*294 FILLER_17_105
*295 FILLER_17_111
*296 FILLER_17_113
*297 FILLER_17_12
*298 FILLER_17_125
*299 FILLER_17_137
*300 FILLER_17_149
*301 FILLER_17_161
*302 FILLER_17_167
*303 FILLER_17_169
*304 FILLER_17_181
*305 FILLER_17_193
*306 FILLER_17_205
*307 FILLER_17_217
*308 FILLER_17_223
*309 FILLER_17_225
*310 FILLER_17_237
*311 FILLER_17_249
*312 FILLER_17_261
*313 FILLER_17_273
*314 FILLER_17_279
*315 FILLER_17_281
*316 FILLER_17_293
*317 FILLER_17_3
*318 FILLER_17_36
*319 FILLER_17_48
*320 FILLER_17_57
*321 FILLER_17_69
*322 FILLER_17_81
*323 FILLER_17_93
*324 FILLER_18_109
*325 FILLER_18_121
*326 FILLER_18_133
*327 FILLER_18_139
*328 FILLER_18_141
*329 FILLER_18_153
*330 FILLER_18_165
*331 FILLER_18_177
*332 FILLER_18_189
*333 FILLER_18_195
*334 FILLER_18_197
*335 FILLER_18_209
*336 FILLER_18_221
*337 FILLER_18_233
*338 FILLER_18_24
*339 FILLER_18_245
*340 FILLER_18_251
*341 FILLER_18_253
*342 FILLER_18_265
*343 FILLER_18_277
*344 FILLER_18_289
*345 FILLER_18_29
*346 FILLER_18_297
*347 FILLER_18_3
*348 FILLER_18_53
*349 FILLER_18_65
*350 FILLER_18_77
*351 FILLER_18_83
*352 FILLER_18_85
*353 FILLER_18_97
*354 FILLER_19_105
*355 FILLER_19_111
*356 FILLER_19_113
*357 FILLER_19_125
*358 FILLER_19_137
*359 FILLER_19_149
*360 FILLER_19_161
*361 FILLER_19_167
*362 FILLER_19_169
*363 FILLER_19_181
*364 FILLER_19_193
*365 FILLER_19_205
*366 FILLER_19_217
*367 FILLER_19_223
*368 FILLER_19_225
*369 FILLER_19_237
*370 FILLER_19_249
*371 FILLER_19_261
*372 FILLER_19_27
*373 FILLER_19_273
*374 FILLER_19_279
*375 FILLER_19_281
*376 FILLER_19_293
*377 FILLER_19_3
*378 FILLER_19_51
*379 FILLER_19_55
*380 FILLER_19_57
*381 FILLER_19_69
*382 FILLER_19_81
*383 FILLER_19_93
*384 FILLER_1_105
*385 FILLER_1_111
*386 FILLER_1_113
*387 FILLER_1_125
*388 FILLER_1_137
*389 FILLER_1_149
*390 FILLER_1_15
*391 FILLER_1_161
*392 FILLER_1_167
*393 FILLER_1_169
*394 FILLER_1_181
*395 FILLER_1_193
*396 FILLER_1_205
*397 FILLER_1_217
*398 FILLER_1_223
*399 FILLER_1_225
*400 FILLER_1_237
*401 FILLER_1_249
*402 FILLER_1_261
*403 FILLER_1_27
*404 FILLER_1_273
*405 FILLER_1_279
*406 FILLER_1_281
*407 FILLER_1_293
*408 FILLER_1_3
*409 FILLER_1_39
*410 FILLER_1_51
*411 FILLER_1_55
*412 FILLER_1_57
*413 FILLER_1_69
*414 FILLER_1_81
*415 FILLER_1_93
*416 FILLER_20_109
*417 FILLER_20_121
*418 FILLER_20_133
*419 FILLER_20_139
*420 FILLER_20_141
*421 FILLER_20_153
*422 FILLER_20_165
*423 FILLER_20_177
*424 FILLER_20_189
*425 FILLER_20_195
*426 FILLER_20_197
*427 FILLER_20_209
*428 FILLER_20_221
*429 FILLER_20_233
*430 FILLER_20_24
*431 FILLER_20_245
*432 FILLER_20_251
*433 FILLER_20_253
*434 FILLER_20_265
*435 FILLER_20_277
*436 FILLER_20_289
*437 FILLER_20_29
*438 FILLER_20_297
*439 FILLER_20_3
*440 FILLER_20_35
*441 FILLER_20_47
*442 FILLER_20_59
*443 FILLER_20_71
*444 FILLER_20_83
*445 FILLER_20_85
*446 FILLER_20_97
*447 FILLER_21_105
*448 FILLER_21_111
*449 FILLER_21_113
*450 FILLER_21_125
*451 FILLER_21_137
*452 FILLER_21_149
*453 FILLER_21_161
*454 FILLER_21_167
*455 FILLER_21_169
*456 FILLER_21_181
*457 FILLER_21_193
*458 FILLER_21_205
*459 FILLER_21_217
*460 FILLER_21_223
*461 FILLER_21_225
*462 FILLER_21_237
*463 FILLER_21_249
*464 FILLER_21_261
*465 FILLER_21_27
*466 FILLER_21_273
*467 FILLER_21_279
*468 FILLER_21_281
*469 FILLER_21_293
*470 FILLER_21_3
*471 FILLER_21_34
*472 FILLER_21_46
*473 FILLER_21_54
*474 FILLER_21_57
*475 FILLER_21_69
*476 FILLER_21_81
*477 FILLER_21_93
*478 FILLER_22_109
*479 FILLER_22_121
*480 FILLER_22_133
*481 FILLER_22_139
*482 FILLER_22_141
*483 FILLER_22_153
*484 FILLER_22_165
*485 FILLER_22_177
*486 FILLER_22_189
*487 FILLER_22_195
*488 FILLER_22_197
*489 FILLER_22_209
*490 FILLER_22_221
*491 FILLER_22_233
*492 FILLER_22_24
*493 FILLER_22_245
*494 FILLER_22_251
*495 FILLER_22_253
*496 FILLER_22_265
*497 FILLER_22_277
*498 FILLER_22_289
*499 FILLER_22_29
*500 FILLER_22_297
*501 FILLER_22_3
*502 FILLER_22_41
*503 FILLER_22_53
*504 FILLER_22_65
*505 FILLER_22_77
*506 FILLER_22_83
*507 FILLER_22_85
*508 FILLER_22_97
*509 FILLER_23_105
*510 FILLER_23_11
*511 FILLER_23_111
*512 FILLER_23_113
*513 FILLER_23_125
*514 FILLER_23_137
*515 FILLER_23_149
*516 FILLER_23_161
*517 FILLER_23_167
*518 FILLER_23_169
*519 FILLER_23_181
*520 FILLER_23_193
*521 FILLER_23_205
*522 FILLER_23_217
*523 FILLER_23_223
*524 FILLER_23_225
*525 FILLER_23_23
*526 FILLER_23_237
*527 FILLER_23_249
*528 FILLER_23_261
*529 FILLER_23_273
*530 FILLER_23_279
*531 FILLER_23_281
*532 FILLER_23_293
*533 FILLER_23_3
*534 FILLER_23_35
*535 FILLER_23_47
*536 FILLER_23_55
*537 FILLER_23_57
*538 FILLER_23_69
*539 FILLER_23_81
*540 FILLER_23_93
*541 FILLER_24_109
*542 FILLER_24_121
*543 FILLER_24_133
*544 FILLER_24_139
*545 FILLER_24_141
*546 FILLER_24_153
*547 FILLER_24_165
*548 FILLER_24_177
*549 FILLER_24_189
*550 FILLER_24_19
*551 FILLER_24_195
*552 FILLER_24_197
*553 FILLER_24_209
*554 FILLER_24_221
*555 FILLER_24_233
*556 FILLER_24_245
*557 FILLER_24_251
*558 FILLER_24_253
*559 FILLER_24_265
*560 FILLER_24_27
*561 FILLER_24_277
*562 FILLER_24_289
*563 FILLER_24_29
*564 FILLER_24_297
*565 FILLER_24_41
*566 FILLER_24_53
*567 FILLER_24_65
*568 FILLER_24_7
*569 FILLER_24_77
*570 FILLER_24_83
*571 FILLER_24_85
*572 FILLER_24_97
*573 FILLER_25_105
*574 FILLER_25_111
*575 FILLER_25_113
*576 FILLER_25_125
*577 FILLER_25_137
*578 FILLER_25_149
*579 FILLER_25_15
*580 FILLER_25_161
*581 FILLER_25_167
*582 FILLER_25_169
*583 FILLER_25_181
*584 FILLER_25_193
*585 FILLER_25_205
*586 FILLER_25_217
*587 FILLER_25_223
*588 FILLER_25_225
*589 FILLER_25_237
*590 FILLER_25_249
*591 FILLER_25_261
*592 FILLER_25_27
*593 FILLER_25_273
*594 FILLER_25_279
*595 FILLER_25_281
*596 FILLER_25_293
*597 FILLER_25_3
*598 FILLER_25_39
*599 FILLER_25_51
*600 FILLER_25_55
*601 FILLER_25_57
*602 FILLER_25_69
*603 FILLER_25_81
*604 FILLER_25_93
*605 FILLER_26_109
*606 FILLER_26_121
*607 FILLER_26_133
*608 FILLER_26_139
*609 FILLER_26_141
*610 FILLER_26_15
*611 FILLER_26_153
*612 FILLER_26_165
*613 FILLER_26_177
*614 FILLER_26_189
*615 FILLER_26_195
*616 FILLER_26_197
*617 FILLER_26_209
*618 FILLER_26_221
*619 FILLER_26_233
*620 FILLER_26_245
*621 FILLER_26_251
*622 FILLER_26_253
*623 FILLER_26_265
*624 FILLER_26_27
*625 FILLER_26_277
*626 FILLER_26_289
*627 FILLER_26_29
*628 FILLER_26_297
*629 FILLER_26_3
*630 FILLER_26_41
*631 FILLER_26_53
*632 FILLER_26_65
*633 FILLER_26_77
*634 FILLER_26_83
*635 FILLER_26_85
*636 FILLER_26_97
*637 FILLER_27_105
*638 FILLER_27_111
*639 FILLER_27_113
*640 FILLER_27_125
*641 FILLER_27_137
*642 FILLER_27_149
*643 FILLER_27_15
*644 FILLER_27_161
*645 FILLER_27_167
*646 FILLER_27_169
*647 FILLER_27_181
*648 FILLER_27_193
*649 FILLER_27_205
*650 FILLER_27_217
*651 FILLER_27_223
*652 FILLER_27_225
*653 FILLER_27_237
*654 FILLER_27_249
*655 FILLER_27_261
*656 FILLER_27_27
*657 FILLER_27_273
*658 FILLER_27_279
*659 FILLER_27_281
*660 FILLER_27_293
*661 FILLER_27_3
*662 FILLER_27_39
*663 FILLER_27_51
*664 FILLER_27_55
*665 FILLER_27_57
*666 FILLER_27_69
*667 FILLER_27_81
*668 FILLER_27_93
*669 FILLER_28_109
*670 FILLER_28_121
*671 FILLER_28_133
*672 FILLER_28_139
*673 FILLER_28_141
*674 FILLER_28_15
*675 FILLER_28_153
*676 FILLER_28_165
*677 FILLER_28_177
*678 FILLER_28_189
*679 FILLER_28_195
*680 FILLER_28_197
*681 FILLER_28_209
*682 FILLER_28_221
*683 FILLER_28_233
*684 FILLER_28_245
*685 FILLER_28_251
*686 FILLER_28_253
*687 FILLER_28_265
*688 FILLER_28_27
*689 FILLER_28_277
*690 FILLER_28_289
*691 FILLER_28_29
*692 FILLER_28_297
*693 FILLER_28_3
*694 FILLER_28_41
*695 FILLER_28_53
*696 FILLER_28_65
*697 FILLER_28_77
*698 FILLER_28_83
*699 FILLER_28_85
*700 FILLER_28_97
*701 FILLER_29_105
*702 FILLER_29_111
*703 FILLER_29_113
*704 FILLER_29_125
*705 FILLER_29_137
*706 FILLER_29_149
*707 FILLER_29_15
*708 FILLER_29_161
*709 FILLER_29_167
*710 FILLER_29_169
*711 FILLER_29_181
*712 FILLER_29_193
*713 FILLER_29_205
*714 FILLER_29_217
*715 FILLER_29_223
*716 FILLER_29_225
*717 FILLER_29_237
*718 FILLER_29_249
*719 FILLER_29_261
*720 FILLER_29_27
*721 FILLER_29_273
*722 FILLER_29_279
*723 FILLER_29_281
*724 FILLER_29_293
*725 FILLER_29_3
*726 FILLER_29_39
*727 FILLER_29_51
*728 FILLER_29_55
*729 FILLER_29_57
*730 FILLER_29_69
*731 FILLER_29_81
*732 FILLER_29_93
*733 FILLER_2_109
*734 FILLER_2_121
*735 FILLER_2_133
*736 FILLER_2_139
*737 FILLER_2_141
*738 FILLER_2_15
*739 FILLER_2_153
*740 FILLER_2_165
*741 FILLER_2_177
*742 FILLER_2_189
*743 FILLER_2_195
*744 FILLER_2_197
*745 FILLER_2_209
*746 FILLER_2_221
*747 FILLER_2_233
*748 FILLER_2_245
*749 FILLER_2_251
*750 FILLER_2_253
*751 FILLER_2_265
*752 FILLER_2_27
*753 FILLER_2_277
*754 FILLER_2_289
*755 FILLER_2_29
*756 FILLER_2_297
*757 FILLER_2_3
*758 FILLER_2_41
*759 FILLER_2_53
*760 FILLER_2_65
*761 FILLER_2_77
*762 FILLER_2_83
*763 FILLER_2_85
*764 FILLER_2_97
*765 FILLER_30_109
*766 FILLER_30_121
*767 FILLER_30_133
*768 FILLER_30_139
*769 FILLER_30_141
*770 FILLER_30_15
*771 FILLER_30_153
*772 FILLER_30_165
*773 FILLER_30_177
*774 FILLER_30_189
*775 FILLER_30_195
*776 FILLER_30_197
*777 FILLER_30_209
*778 FILLER_30_221
*779 FILLER_30_233
*780 FILLER_30_245
*781 FILLER_30_251
*782 FILLER_30_253
*783 FILLER_30_265
*784 FILLER_30_27
*785 FILLER_30_277
*786 FILLER_30_289
*787 FILLER_30_29
*788 FILLER_30_297
*789 FILLER_30_3
*790 FILLER_30_41
*791 FILLER_30_53
*792 FILLER_30_65
*793 FILLER_30_77
*794 FILLER_30_83
*795 FILLER_30_85
*796 FILLER_30_97
*797 FILLER_31_105
*798 FILLER_31_111
*799 FILLER_31_113
*800 FILLER_31_125
*801 FILLER_31_137
*802 FILLER_31_149
*803 FILLER_31_15
*804 FILLER_31_161
*805 FILLER_31_167
*806 FILLER_31_169
*807 FILLER_31_181
*808 FILLER_31_193
*809 FILLER_31_205
*810 FILLER_31_217
*811 FILLER_31_223
*812 FILLER_31_225
*813 FILLER_31_237
*814 FILLER_31_249
*815 FILLER_31_261
*816 FILLER_31_27
*817 FILLER_31_273
*818 FILLER_31_279
*819 FILLER_31_281
*820 FILLER_31_293
*821 FILLER_31_3
*822 FILLER_31_39
*823 FILLER_31_51
*824 FILLER_31_55
*825 FILLER_31_57
*826 FILLER_31_69
*827 FILLER_31_81
*828 FILLER_31_93
*829 FILLER_32_109
*830 FILLER_32_121
*831 FILLER_32_133
*832 FILLER_32_139
*833 FILLER_32_141
*834 FILLER_32_15
*835 FILLER_32_153
*836 FILLER_32_165
*837 FILLER_32_177
*838 FILLER_32_189
*839 FILLER_32_195
*840 FILLER_32_197
*841 FILLER_32_209
*842 FILLER_32_221
*843 FILLER_32_233
*844 FILLER_32_245
*845 FILLER_32_251
*846 FILLER_32_253
*847 FILLER_32_265
*848 FILLER_32_27
*849 FILLER_32_277
*850 FILLER_32_289
*851 FILLER_32_29
*852 FILLER_32_297
*853 FILLER_32_3
*854 FILLER_32_41
*855 FILLER_32_53
*856 FILLER_32_65
*857 FILLER_32_77
*858 FILLER_32_83
*859 FILLER_32_85
*860 FILLER_32_97
*861 FILLER_33_105
*862 FILLER_33_111
*863 FILLER_33_113
*864 FILLER_33_125
*865 FILLER_33_137
*866 FILLER_33_149
*867 FILLER_33_15
*868 FILLER_33_161
*869 FILLER_33_167
*870 FILLER_33_169
*871 FILLER_33_181
*872 FILLER_33_193
*873 FILLER_33_205
*874 FILLER_33_217
*875 FILLER_33_223
*876 FILLER_33_225
*877 FILLER_33_237
*878 FILLER_33_249
*879 FILLER_33_261
*880 FILLER_33_27
*881 FILLER_33_273
*882 FILLER_33_279
*883 FILLER_33_281
*884 FILLER_33_293
*885 FILLER_33_3
*886 FILLER_33_39
*887 FILLER_33_51
*888 FILLER_33_55
*889 FILLER_33_57
*890 FILLER_33_69
*891 FILLER_33_81
*892 FILLER_33_93
*893 FILLER_34_109
*894 FILLER_34_121
*895 FILLER_34_133
*896 FILLER_34_139
*897 FILLER_34_141
*898 FILLER_34_15
*899 FILLER_34_153
*900 FILLER_34_165
*901 FILLER_34_177
*902 FILLER_34_189
*903 FILLER_34_195
*904 FILLER_34_197
*905 FILLER_34_209
*906 FILLER_34_221
*907 FILLER_34_233
*908 FILLER_34_245
*909 FILLER_34_251
*910 FILLER_34_253
*911 FILLER_34_265
*912 FILLER_34_27
*913 FILLER_34_277
*914 FILLER_34_289
*915 FILLER_34_29
*916 FILLER_34_297
*917 FILLER_34_3
*918 FILLER_34_41
*919 FILLER_34_53
*920 FILLER_34_65
*921 FILLER_34_77
*922 FILLER_34_83
*923 FILLER_34_85
*924 FILLER_34_97
*925 FILLER_35_105
*926 FILLER_35_111
*927 FILLER_35_113
*928 FILLER_35_125
*929 FILLER_35_137
*930 FILLER_35_149
*931 FILLER_35_15
*932 FILLER_35_161
*933 FILLER_35_167
*934 FILLER_35_169
*935 FILLER_35_181
*936 FILLER_35_193
*937 FILLER_35_205
*938 FILLER_35_217
*939 FILLER_35_223
*940 FILLER_35_225
*941 FILLER_35_237
*942 FILLER_35_249
*943 FILLER_35_261
*944 FILLER_35_27
*945 FILLER_35_273
*946 FILLER_35_279
*947 FILLER_35_281
*948 FILLER_35_293
*949 FILLER_35_3
*950 FILLER_35_39
*951 FILLER_35_51
*952 FILLER_35_55
*953 FILLER_35_57
*954 FILLER_35_69
*955 FILLER_35_81
*956 FILLER_35_93
*957 FILLER_36_109
*958 FILLER_36_121
*959 FILLER_36_133
*960 FILLER_36_139
*961 FILLER_36_141
*962 FILLER_36_15
*963 FILLER_36_153
*964 FILLER_36_165
*965 FILLER_36_177
*966 FILLER_36_189
*967 FILLER_36_195
*968 FILLER_36_197
*969 FILLER_36_209
*970 FILLER_36_221
*971 FILLER_36_233
*972 FILLER_36_245
*973 FILLER_36_251
*974 FILLER_36_253
*975 FILLER_36_265
*976 FILLER_36_27
*977 FILLER_36_277
*978 FILLER_36_289
*979 FILLER_36_29
*980 FILLER_36_297
*981 FILLER_36_3
*982 FILLER_36_41
*983 FILLER_36_53
*984 FILLER_36_65
*985 FILLER_36_77
*986 FILLER_36_83
*987 FILLER_36_85
*988 FILLER_36_97
*989 FILLER_37_105
*990 FILLER_37_111
*991 FILLER_37_113
*992 FILLER_37_125
*993 FILLER_37_137
*994 FILLER_37_149
*995 FILLER_37_15
*996 FILLER_37_161
*997 FILLER_37_167
*998 FILLER_37_169
*999 FILLER_37_181
*1000 FILLER_37_193
*1001 FILLER_37_205
*1002 FILLER_37_217
*1003 FILLER_37_223
*1004 FILLER_37_225
*1005 FILLER_37_237
*1006 FILLER_37_249
*1007 FILLER_37_261
*1008 FILLER_37_27
*1009 FILLER_37_273
*1010 FILLER_37_279
*1011 FILLER_37_281
*1012 FILLER_37_293
*1013 FILLER_37_3
*1014 FILLER_37_39
*1015 FILLER_37_51
*1016 FILLER_37_55
*1017 FILLER_37_57
*1018 FILLER_37_69
*1019 FILLER_37_81
*1020 FILLER_37_93
*1021 FILLER_38_109
*1022 FILLER_38_121
*1023 FILLER_38_133
*1024 FILLER_38_139
*1025 FILLER_38_141
*1026 FILLER_38_15
*1027 FILLER_38_153
*1028 FILLER_38_165
*1029 FILLER_38_177
*1030 FILLER_38_189
*1031 FILLER_38_195
*1032 FILLER_38_197
*1033 FILLER_38_209
*1034 FILLER_38_221
*1035 FILLER_38_233
*1036 FILLER_38_245
*1037 FILLER_38_251
*1038 FILLER_38_253
*1039 FILLER_38_265
*1040 FILLER_38_27
*1041 FILLER_38_277
*1042 FILLER_38_289
*1043 FILLER_38_29
*1044 FILLER_38_297
*1045 FILLER_38_3
*1046 FILLER_38_41
*1047 FILLER_38_53
*1048 FILLER_38_65
*1049 FILLER_38_77
*1050 FILLER_38_83
*1051 FILLER_38_85
*1052 FILLER_38_97
*1053 FILLER_39_105
*1054 FILLER_39_111
*1055 FILLER_39_113
*1056 FILLER_39_125
*1057 FILLER_39_137
*1058 FILLER_39_149
*1059 FILLER_39_161
*1060 FILLER_39_167
*1061 FILLER_39_169
*1062 FILLER_39_18
*1063 FILLER_39_181
*1064 FILLER_39_193
*1065 FILLER_39_205
*1066 FILLER_39_217
*1067 FILLER_39_223
*1068 FILLER_39_225
*1069 FILLER_39_237
*1070 FILLER_39_249
*1071 FILLER_39_261
*1072 FILLER_39_273
*1073 FILLER_39_279
*1074 FILLER_39_281
*1075 FILLER_39_293
*1076 FILLER_39_30
*1077 FILLER_39_42
*1078 FILLER_39_54
*1079 FILLER_39_57
*1080 FILLER_39_6
*1081 FILLER_39_69
*1082 FILLER_39_81
*1083 FILLER_39_93
*1084 FILLER_3_105
*1085 FILLER_3_111
*1086 FILLER_3_113
*1087 FILLER_3_125
*1088 FILLER_3_137
*1089 FILLER_3_149
*1090 FILLER_3_15
*1091 FILLER_3_161
*1092 FILLER_3_167
*1093 FILLER_3_169
*1094 FILLER_3_181
*1095 FILLER_3_193
*1096 FILLER_3_205
*1097 FILLER_3_217
*1098 FILLER_3_223
*1099 FILLER_3_225
*1100 FILLER_3_237
*1101 FILLER_3_249
*1102 FILLER_3_261
*1103 FILLER_3_27
*1104 FILLER_3_273
*1105 FILLER_3_279
*1106 FILLER_3_281
*1107 FILLER_3_293
*1108 FILLER_3_3
*1109 FILLER_3_39
*1110 FILLER_3_51
*1111 FILLER_3_55
*1112 FILLER_3_57
*1113 FILLER_3_69
*1114 FILLER_3_81
*1115 FILLER_3_93
*1116 FILLER_40_109
*1117 FILLER_40_121
*1118 FILLER_40_133
*1119 FILLER_40_139
*1120 FILLER_40_141
*1121 FILLER_40_15
*1122 FILLER_40_153
*1123 FILLER_40_165
*1124 FILLER_40_177
*1125 FILLER_40_189
*1126 FILLER_40_195
*1127 FILLER_40_197
*1128 FILLER_40_209
*1129 FILLER_40_221
*1130 FILLER_40_233
*1131 FILLER_40_245
*1132 FILLER_40_251
*1133 FILLER_40_253
*1134 FILLER_40_265
*1135 FILLER_40_27
*1136 FILLER_40_277
*1137 FILLER_40_289
*1138 FILLER_40_29
*1139 FILLER_40_297
*1140 FILLER_40_3
*1141 FILLER_40_41
*1142 FILLER_40_53
*1143 FILLER_40_65
*1144 FILLER_40_77
*1145 FILLER_40_83
*1146 FILLER_40_85
*1147 FILLER_40_97
*1148 FILLER_41_105
*1149 FILLER_41_111
*1150 FILLER_41_113
*1151 FILLER_41_125
*1152 FILLER_41_137
*1153 FILLER_41_149
*1154 FILLER_41_15
*1155 FILLER_41_161
*1156 FILLER_41_167
*1157 FILLER_41_169
*1158 FILLER_41_181
*1159 FILLER_41_193
*1160 FILLER_41_205
*1161 FILLER_41_217
*1162 FILLER_41_223
*1163 FILLER_41_225
*1164 FILLER_41_237
*1165 FILLER_41_249
*1166 FILLER_41_261
*1167 FILLER_41_27
*1168 FILLER_41_273
*1169 FILLER_41_279
*1170 FILLER_41_281
*1171 FILLER_41_293
*1172 FILLER_41_3
*1173 FILLER_41_39
*1174 FILLER_41_51
*1175 FILLER_41_55
*1176 FILLER_41_57
*1177 FILLER_41_69
*1178 FILLER_41_81
*1179 FILLER_41_93
*1180 FILLER_42_109
*1181 FILLER_42_121
*1182 FILLER_42_133
*1183 FILLER_42_139
*1184 FILLER_42_141
*1185 FILLER_42_153
*1186 FILLER_42_165
*1187 FILLER_42_177
*1188 FILLER_42_18
*1189 FILLER_42_189
*1190 FILLER_42_195
*1191 FILLER_42_197
*1192 FILLER_42_209
*1193 FILLER_42_221
*1194 FILLER_42_233
*1195 FILLER_42_245
*1196 FILLER_42_251
*1197 FILLER_42_253
*1198 FILLER_42_26
*1199 FILLER_42_265
*1200 FILLER_42_277
*1201 FILLER_42_289
*1202 FILLER_42_29
*1203 FILLER_42_297
*1204 FILLER_42_41
*1205 FILLER_42_53
*1206 FILLER_42_6
*1207 FILLER_42_65
*1208 FILLER_42_77
*1209 FILLER_42_83
*1210 FILLER_42_85
*1211 FILLER_42_97
*1212 FILLER_43_105
*1213 FILLER_43_111
*1214 FILLER_43_113
*1215 FILLER_43_125
*1216 FILLER_43_137
*1217 FILLER_43_149
*1218 FILLER_43_15
*1219 FILLER_43_161
*1220 FILLER_43_167
*1221 FILLER_43_169
*1222 FILLER_43_181
*1223 FILLER_43_193
*1224 FILLER_43_205
*1225 FILLER_43_217
*1226 FILLER_43_223
*1227 FILLER_43_225
*1228 FILLER_43_237
*1229 FILLER_43_249
*1230 FILLER_43_261
*1231 FILLER_43_27
*1232 FILLER_43_273
*1233 FILLER_43_279
*1234 FILLER_43_281
*1235 FILLER_43_293
*1236 FILLER_43_3
*1237 FILLER_43_39
*1238 FILLER_43_51
*1239 FILLER_43_55
*1240 FILLER_43_57
*1241 FILLER_43_69
*1242 FILLER_43_81
*1243 FILLER_43_93
*1244 FILLER_44_109
*1245 FILLER_44_121
*1246 FILLER_44_133
*1247 FILLER_44_139
*1248 FILLER_44_141
*1249 FILLER_44_15
*1250 FILLER_44_153
*1251 FILLER_44_165
*1252 FILLER_44_177
*1253 FILLER_44_189
*1254 FILLER_44_195
*1255 FILLER_44_197
*1256 FILLER_44_209
*1257 FILLER_44_221
*1258 FILLER_44_233
*1259 FILLER_44_245
*1260 FILLER_44_251
*1261 FILLER_44_253
*1262 FILLER_44_265
*1263 FILLER_44_27
*1264 FILLER_44_277
*1265 FILLER_44_289
*1266 FILLER_44_29
*1267 FILLER_44_297
*1268 FILLER_44_3
*1269 FILLER_44_41
*1270 FILLER_44_53
*1271 FILLER_44_65
*1272 FILLER_44_77
*1273 FILLER_44_83
*1274 FILLER_44_85
*1275 FILLER_44_97
*1276 FILLER_45_105
*1277 FILLER_45_111
*1278 FILLER_45_113
*1279 FILLER_45_125
*1280 FILLER_45_137
*1281 FILLER_45_149
*1282 FILLER_45_15
*1283 FILLER_45_161
*1284 FILLER_45_167
*1285 FILLER_45_169
*1286 FILLER_45_181
*1287 FILLER_45_193
*1288 FILLER_45_205
*1289 FILLER_45_217
*1290 FILLER_45_223
*1291 FILLER_45_225
*1292 FILLER_45_237
*1293 FILLER_45_249
*1294 FILLER_45_261
*1295 FILLER_45_27
*1296 FILLER_45_273
*1297 FILLER_45_279
*1298 FILLER_45_281
*1299 FILLER_45_293
*1300 FILLER_45_3
*1301 FILLER_45_39
*1302 FILLER_45_51
*1303 FILLER_45_55
*1304 FILLER_45_57
*1305 FILLER_45_69
*1306 FILLER_45_81
*1307 FILLER_45_93
*1308 FILLER_46_109
*1309 FILLER_46_121
*1310 FILLER_46_133
*1311 FILLER_46_139
*1312 FILLER_46_141
*1313 FILLER_46_153
*1314 FILLER_46_165
*1315 FILLER_46_177
*1316 FILLER_46_18
*1317 FILLER_46_189
*1318 FILLER_46_195
*1319 FILLER_46_197
*1320 FILLER_46_209
*1321 FILLER_46_221
*1322 FILLER_46_233
*1323 FILLER_46_245
*1324 FILLER_46_251
*1325 FILLER_46_253
*1326 FILLER_46_26
*1327 FILLER_46_265
*1328 FILLER_46_277
*1329 FILLER_46_289
*1330 FILLER_46_29
*1331 FILLER_46_297
*1332 FILLER_46_41
*1333 FILLER_46_53
*1334 FILLER_46_6
*1335 FILLER_46_65
*1336 FILLER_46_77
*1337 FILLER_46_83
*1338 FILLER_46_85
*1339 FILLER_46_97
*1340 FILLER_47_105
*1341 FILLER_47_111
*1342 FILLER_47_113
*1343 FILLER_47_125
*1344 FILLER_47_137
*1345 FILLER_47_149
*1346 FILLER_47_15
*1347 FILLER_47_161
*1348 FILLER_47_167
*1349 FILLER_47_169
*1350 FILLER_47_181
*1351 FILLER_47_193
*1352 FILLER_47_205
*1353 FILLER_47_217
*1354 FILLER_47_223
*1355 FILLER_47_225
*1356 FILLER_47_237
*1357 FILLER_47_249
*1358 FILLER_47_261
*1359 FILLER_47_27
*1360 FILLER_47_273
*1361 FILLER_47_279
*1362 FILLER_47_281
*1363 FILLER_47_293
*1364 FILLER_47_3
*1365 FILLER_47_39
*1366 FILLER_47_51
*1367 FILLER_47_55
*1368 FILLER_47_57
*1369 FILLER_47_69
*1370 FILLER_47_81
*1371 FILLER_47_93
*1372 FILLER_48_109
*1373 FILLER_48_121
*1374 FILLER_48_133
*1375 FILLER_48_139
*1376 FILLER_48_141
*1377 FILLER_48_15
*1378 FILLER_48_153
*1379 FILLER_48_165
*1380 FILLER_48_177
*1381 FILLER_48_189
*1382 FILLER_48_195
*1383 FILLER_48_197
*1384 FILLER_48_209
*1385 FILLER_48_221
*1386 FILLER_48_233
*1387 FILLER_48_245
*1388 FILLER_48_251
*1389 FILLER_48_253
*1390 FILLER_48_265
*1391 FILLER_48_27
*1392 FILLER_48_277
*1393 FILLER_48_289
*1394 FILLER_48_29
*1395 FILLER_48_297
*1396 FILLER_48_3
*1397 FILLER_48_41
*1398 FILLER_48_53
*1399 FILLER_48_65
*1400 FILLER_48_77
*1401 FILLER_48_83
*1402 FILLER_48_85
*1403 FILLER_48_97
*1404 FILLER_49_105
*1405 FILLER_49_111
*1406 FILLER_49_113
*1407 FILLER_49_125
*1408 FILLER_49_137
*1409 FILLER_49_149
*1410 FILLER_49_15
*1411 FILLER_49_161
*1412 FILLER_49_167
*1413 FILLER_49_169
*1414 FILLER_49_181
*1415 FILLER_49_193
*1416 FILLER_49_205
*1417 FILLER_49_217
*1418 FILLER_49_223
*1419 FILLER_49_225
*1420 FILLER_49_237
*1421 FILLER_49_249
*1422 FILLER_49_261
*1423 FILLER_49_27
*1424 FILLER_49_273
*1425 FILLER_49_279
*1426 FILLER_49_281
*1427 FILLER_49_293
*1428 FILLER_49_3
*1429 FILLER_49_39
*1430 FILLER_49_51
*1431 FILLER_49_55
*1432 FILLER_49_57
*1433 FILLER_49_69
*1434 FILLER_49_81
*1435 FILLER_49_93
*1436 FILLER_4_109
*1437 FILLER_4_121
*1438 FILLER_4_133
*1439 FILLER_4_139
*1440 FILLER_4_141
*1441 FILLER_4_15
*1442 FILLER_4_153
*1443 FILLER_4_165
*1444 FILLER_4_177
*1445 FILLER_4_189
*1446 FILLER_4_195
*1447 FILLER_4_197
*1448 FILLER_4_209
*1449 FILLER_4_221
*1450 FILLER_4_233
*1451 FILLER_4_245
*1452 FILLER_4_251
*1453 FILLER_4_253
*1454 FILLER_4_265
*1455 FILLER_4_27
*1456 FILLER_4_277
*1457 FILLER_4_289
*1458 FILLER_4_29
*1459 FILLER_4_297
*1460 FILLER_4_3
*1461 FILLER_4_41
*1462 FILLER_4_53
*1463 FILLER_4_65
*1464 FILLER_4_77
*1465 FILLER_4_83
*1466 FILLER_4_85
*1467 FILLER_4_97
*1468 FILLER_50_109
*1469 FILLER_50_121
*1470 FILLER_50_133
*1471 FILLER_50_139
*1472 FILLER_50_141
*1473 FILLER_50_153
*1474 FILLER_50_165
*1475 FILLER_50_177
*1476 FILLER_50_18
*1477 FILLER_50_189
*1478 FILLER_50_195
*1479 FILLER_50_197
*1480 FILLER_50_209
*1481 FILLER_50_221
*1482 FILLER_50_233
*1483 FILLER_50_245
*1484 FILLER_50_251
*1485 FILLER_50_253
*1486 FILLER_50_26
*1487 FILLER_50_265
*1488 FILLER_50_277
*1489 FILLER_50_289
*1490 FILLER_50_29
*1491 FILLER_50_297
*1492 FILLER_50_41
*1493 FILLER_50_53
*1494 FILLER_50_6
*1495 FILLER_50_65
*1496 FILLER_50_77
*1497 FILLER_50_83
*1498 FILLER_50_85
*1499 FILLER_50_97
*1500 FILLER_51_105
*1501 FILLER_51_111
*1502 FILLER_51_113
*1503 FILLER_51_125
*1504 FILLER_51_137
*1505 FILLER_51_149
*1506 FILLER_51_15
*1507 FILLER_51_161
*1508 FILLER_51_167
*1509 FILLER_51_169
*1510 FILLER_51_181
*1511 FILLER_51_193
*1512 FILLER_51_205
*1513 FILLER_51_217
*1514 FILLER_51_223
*1515 FILLER_51_225
*1516 FILLER_51_237
*1517 FILLER_51_249
*1518 FILLER_51_261
*1519 FILLER_51_27
*1520 FILLER_51_273
*1521 FILLER_51_279
*1522 FILLER_51_281
*1523 FILLER_51_293
*1524 FILLER_51_3
*1525 FILLER_51_39
*1526 FILLER_51_51
*1527 FILLER_51_55
*1528 FILLER_51_57
*1529 FILLER_51_69
*1530 FILLER_51_81
*1531 FILLER_51_93
*1532 FILLER_52_109
*1533 FILLER_52_121
*1534 FILLER_52_133
*1535 FILLER_52_139
*1536 FILLER_52_141
*1537 FILLER_52_15
*1538 FILLER_52_153
*1539 FILLER_52_165
*1540 FILLER_52_177
*1541 FILLER_52_189
*1542 FILLER_52_195
*1543 FILLER_52_197
*1544 FILLER_52_209
*1545 FILLER_52_221
*1546 FILLER_52_233
*1547 FILLER_52_245
*1548 FILLER_52_251
*1549 FILLER_52_253
*1550 FILLER_52_265
*1551 FILLER_52_27
*1552 FILLER_52_277
*1553 FILLER_52_289
*1554 FILLER_52_29
*1555 FILLER_52_297
*1556 FILLER_52_3
*1557 FILLER_52_41
*1558 FILLER_52_53
*1559 FILLER_52_65
*1560 FILLER_52_77
*1561 FILLER_52_83
*1562 FILLER_52_85
*1563 FILLER_52_97
*1564 FILLER_53_105
*1565 FILLER_53_111
*1566 FILLER_53_113
*1567 FILLER_53_125
*1568 FILLER_53_137
*1569 FILLER_53_149
*1570 FILLER_53_15
*1571 FILLER_53_161
*1572 FILLER_53_167
*1573 FILLER_53_169
*1574 FILLER_53_181
*1575 FILLER_53_193