*SPEF "ieee 1481-1999"
*DESIGN "user_module_349901899339661908"
*DATE "11:11:11 Fri 11 11, 1111"
*VENDOR "OpenRCX"
*PROGRAM "Parallel Extraction"
*VERSION "1.0"
*DESIGN_FLOW "NAME_SCOPE LOCAL" "PIN_CAP NONE"
*DIVIDER /
*DELIMITER :
*BUS_DELIMITER []
*T_UNIT 1 NS
*C_UNIT 1 PF
*R_UNIT 1 OHM
*L_UNIT 1 HENRY

*NAME_MAP
*1 io_in[0]
*2 io_in[1]
*3 io_in[2]
*4 io_in[3]
*5 io_in[4]
*6 io_in[5]
*7 io_in[6]
*8 io_in[7]
*9 io_out[0]
*10 io_out[1]
*11 io_out[2]
*12 io_out[3]
*13 io_out[4]
*14 io_out[5]
*15 io_out[6]
*16 io_out[7]
*19 _000_
*20 _001_
*21 _002_
*22 _003_
*23 _004_
*24 _005_
*25 _006_
*26 _007_
*27 _008_
*28 _009_
*29 _010_
*30 _011_
*31 _012_
*32 _013_
*33 _014_
*34 _015_
*35 _016_
*36 _017_
*37 _018_
*38 _019_
*39 _020_
*40 _021_
*41 _022_
*42 _023_
*43 _024_
*44 _025_
*45 _026_
*46 _027_
*47 _028_
*48 _029_
*49 _030_
*50 _031_
*51 _032_
*52 _033_
*53 _034_
*54 _035_
*55 _036_
*56 _037_
*57 _038_
*58 _039_
*59 _040_
*60 _041_
*61 _042_
*62 _043_
*63 _044_
*64 _045_
*65 _046_
*66 _047_
*67 _048_
*68 _049_
*69 _050_
*70 _051_
*71 _052_
*72 _053_
*73 _054_
*74 _055_
*75 _056_
*76 _057_
*77 _058_
*78 _059_
*79 _060_
*80 _061_
*81 _062_
*82 _063_
*83 _064_
*84 _065_
*85 _066_
*86 _067_
*87 _068_
*88 _069_
*89 _070_
*90 _071_
*91 _072_
*92 _073_
*93 _074_
*94 _075_
*95 _076_
*96 _077_
*97 _078_
*98 _079_
*99 _080_
*100 _081_
*101 _082_
*102 _083_
*103 _084_
*104 _085_
*105 _086_
*106 _087_
*107 _088_
*108 _089_
*109 _090_
*110 _091_
*111 _092_
*112 _093_
*113 _094_
*114 _095_
*115 _096_
*116 _097_
*117 _098_
*118 _099_
*119 _100_
*120 _101_
*121 _102_
*122 _103_
*123 _104_
*124 _105_
*125 _106_
*126 _107_
*127 _108_
*128 _109_
*129 _110_
*130 _111_
*131 _112_
*132 _113_
*133 _114_
*134 _115_
*135 _116_
*136 _117_
*137 _118_
*138 _119_
*139 _120_
*140 _121_
*141 _122_
*142 _123_
*143 _124_
*144 _125_
*145 _126_
*146 _127_
*147 _128_
*148 _129_
*149 _130_
*150 _131_
*151 _132_
*152 _133_
*153 _134_
*154 _135_
*155 clknet_0_io_in[0]
*156 clknet_1_0__leaf_io_in[0]
*157 clknet_1_1__leaf_io_in[0]
*158 flipflop10\.q
*159 flipflop11\.q
*160 flipflop12\.q
*161 flipflop13\.q
*162 flipflop14\.q
*163 flipflop15\.q
*164 flipflop16\.q
*165 flipflop17\.q
*166 flipflop2\.q
*167 flipflop3\.q
*168 flipflop4\.q
*169 flipflop5\.q
*170 flipflop6\.q
*171 flipflop7\.q
*172 flipflop8\.q
*173 flipflop9\.q
*174 gate142\.out
*175 gate163\.out
*176 gate172\.out
*177 gate186\.out
*178 gate192\.out
*179 gate199\.out
*180 gate200\.out
*181 gate206\.out
*182 net1
*183 net2
*184 net3
*185 net4
*186 net5
*187 net6
*188 FILLER_0_109
*189 FILLER_0_113
*190 FILLER_0_125
*191 FILLER_0_137
*192 FILLER_0_141
*193 FILLER_0_15
*194 FILLER_0_153
*195 FILLER_0_165
*196 FILLER_0_169
*197 FILLER_0_181
*198 FILLER_0_193
*199 FILLER_0_197
*200 FILLER_0_209
*201 FILLER_0_221
*202 FILLER_0_225
*203 FILLER_0_237
*204 FILLER_0_249
*205 FILLER_0_253
*206 FILLER_0_265
*207 FILLER_0_27
*208 FILLER_0_277
*209 FILLER_0_281
*210 FILLER_0_29
*211 FILLER_0_293
*212 FILLER_0_3
*213 FILLER_0_41
*214 FILLER_0_53
*215 FILLER_0_57
*216 FILLER_0_69
*217 FILLER_0_81
*218 FILLER_0_85
*219 FILLER_0_97
*220 FILLER_10_109
*221 FILLER_10_121
*222 FILLER_10_133
*223 FILLER_10_139
*224 FILLER_10_141
*225 FILLER_10_153
*226 FILLER_10_165
*227 FILLER_10_17
*228 FILLER_10_177
*229 FILLER_10_189
*230 FILLER_10_195
*231 FILLER_10_197
*232 FILLER_10_209
*233 FILLER_10_221
*234 FILLER_10_23
*235 FILLER_10_233
*236 FILLER_10_245
*237 FILLER_10_251
*238 FILLER_10_253
*239 FILLER_10_265
*240 FILLER_10_27
*241 FILLER_10_277
*242 FILLER_10_289
*243 FILLER_10_297
*244 FILLER_10_32
*245 FILLER_10_44
*246 FILLER_10_56
*247 FILLER_10_68
*248 FILLER_10_80
*249 FILLER_10_85
*250 FILLER_10_9
*251 FILLER_10_97
*252 FILLER_11_105
*253 FILLER_11_111
*254 FILLER_11_113
*255 FILLER_11_125
*256 FILLER_11_137
*257 FILLER_11_149
*258 FILLER_11_161
*259 FILLER_11_167
*260 FILLER_11_169
*261 FILLER_11_18
*262 FILLER_11_181
*263 FILLER_11_193
*264 FILLER_11_205
*265 FILLER_11_217
*266 FILLER_11_223
*267 FILLER_11_225
*268 FILLER_11_237
*269 FILLER_11_249
*270 FILLER_11_261
*271 FILLER_11_273
*272 FILLER_11_279
*273 FILLER_11_281
*274 FILLER_11_293
*275 FILLER_11_3
*276 FILLER_11_31
*277 FILLER_11_35
*278 FILLER_11_39
*279 FILLER_11_51
*280 FILLER_11_55
*281 FILLER_11_57
*282 FILLER_11_69
*283 FILLER_11_7
*284 FILLER_11_81
*285 FILLER_11_93
*286 FILLER_12_109
*287 FILLER_12_11
*288 FILLER_12_121
*289 FILLER_12_133
*290 FILLER_12_139
*291 FILLER_12_141
*292 FILLER_12_153
*293 FILLER_12_165
*294 FILLER_12_177
*295 FILLER_12_189
*296 FILLER_12_195
*297 FILLER_12_197
*298 FILLER_12_209
*299 FILLER_12_221
*300 FILLER_12_233
*301 FILLER_12_24
*302 FILLER_12_245
*303 FILLER_12_251
*304 FILLER_12_253
*305 FILLER_12_265
*306 FILLER_12_277
*307 FILLER_12_289
*308 FILLER_12_29
*309 FILLER_12_297
*310 FILLER_12_38
*311 FILLER_12_45
*312 FILLER_12_52
*313 FILLER_12_64
*314 FILLER_12_76
*315 FILLER_12_85
*316 FILLER_12_97
*317 FILLER_13_104
*318 FILLER_13_113
*319 FILLER_13_125
*320 FILLER_13_13
*321 FILLER_13_137
*322 FILLER_13_149
*323 FILLER_13_161
*324 FILLER_13_167
*325 FILLER_13_169
*326 FILLER_13_181
*327 FILLER_13_193
*328 FILLER_13_205
*329 FILLER_13_217
*330 FILLER_13_223
*331 FILLER_13_225
*332 FILLER_13_237
*333 FILLER_13_249
*334 FILLER_13_261
*335 FILLER_13_273
*336 FILLER_13_279
*337 FILLER_13_281
*338 FILLER_13_29
*339 FILLER_13_293
*340 FILLER_13_42
*341 FILLER_13_51
*342 FILLER_13_55
*343 FILLER_13_61
*344 FILLER_13_68
*345 FILLER_13_80
*346 FILLER_13_92
*347 FILLER_14_109
*348 FILLER_14_121
*349 FILLER_14_133
*350 FILLER_14_139
*351 FILLER_14_141
*352 FILLER_14_153
*353 FILLER_14_165
*354 FILLER_14_177
*355 FILLER_14_189
*356 FILLER_14_19
*357 FILLER_14_195
*358 FILLER_14_197
*359 FILLER_14_209
*360 FILLER_14_221
*361 FILLER_14_233
*362 FILLER_14_245
*363 FILLER_14_251
*364 FILLER_14_253
*365 FILLER_14_265
*366 FILLER_14_27
*367 FILLER_14_277
*368 FILLER_14_289
*369 FILLER_14_297
*370 FILLER_14_38
*371 FILLER_14_49
*372 FILLER_14_60
*373 FILLER_14_68
*374 FILLER_14_80
*375 FILLER_14_85
*376 FILLER_14_97
*377 FILLER_15_103
*378 FILLER_15_111
*379 FILLER_15_113
*380 FILLER_15_125
*381 FILLER_15_137
*382 FILLER_15_149
*383 FILLER_15_161
*384 FILLER_15_167
*385 FILLER_15_169
*386 FILLER_15_181
*387 FILLER_15_19
*388 FILLER_15_193
*389 FILLER_15_205
*390 FILLER_15_217
*391 FILLER_15_223
*392 FILLER_15_225
*393 FILLER_15_237
*394 FILLER_15_249
*395 FILLER_15_261
*396 FILLER_15_27
*397 FILLER_15_273
*398 FILLER_15_279
*399 FILLER_15_281
*400 FILLER_15_293
*401 FILLER_15_39
*402 FILLER_15_50
*403 FILLER_15_64
*404 FILLER_15_72
*405 FILLER_15_79
*406 FILLER_15_91
*407 FILLER_16_100
*408 FILLER_16_112
*409 FILLER_16_124
*410 FILLER_16_136
*411 FILLER_16_141
*412 FILLER_16_153
*413 FILLER_16_165
*414 FILLER_16_177
*415 FILLER_16_189
*416 FILLER_16_19
*417 FILLER_16_195
*418 FILLER_16_197
*419 FILLER_16_209
*420 FILLER_16_221
*421 FILLER_16_233
*422 FILLER_16_245
*423 FILLER_16_251
*424 FILLER_16_253
*425 FILLER_16_265
*426 FILLER_16_27
*427 FILLER_16_277
*428 FILLER_16_289
*429 FILLER_16_297
*430 FILLER_16_45
*431 FILLER_16_57
*432 FILLER_16_68
*433 FILLER_16_76
*434 FILLER_16_88
*435 FILLER_17_100
*436 FILLER_17_113
*437 FILLER_17_125
*438 FILLER_17_137
*439 FILLER_17_149
*440 FILLER_17_15
*441 FILLER_17_161
*442 FILLER_17_167
*443 FILLER_17_169
*444 FILLER_17_181
*445 FILLER_17_193
*446 FILLER_17_205
*447 FILLER_17_217
*448 FILLER_17_223
*449 FILLER_17_225
*450 FILLER_17_237
*451 FILLER_17_249
*452 FILLER_17_261
*453 FILLER_17_273
*454 FILLER_17_279
*455 FILLER_17_281
*456 FILLER_17_293
*457 FILLER_17_3
*458 FILLER_17_36
*459 FILLER_17_50
*460 FILLER_17_65
*461 FILLER_17_76
*462 FILLER_17_84
*463 FILLER_17_88
*464 FILLER_18_110
*465 FILLER_18_122
*466 FILLER_18_134
*467 FILLER_18_141
*468 FILLER_18_153
*469 FILLER_18_165
*470 FILLER_18_177
*471 FILLER_18_189
*472 FILLER_18_19
*473 FILLER_18_195
*474 FILLER_18_197
*475 FILLER_18_209
*476 FILLER_18_221
*477 FILLER_18_233
*478 FILLER_18_245
*479 FILLER_18_251
*480 FILLER_18_253
*481 FILLER_18_265
*482 FILLER_18_27
*483 FILLER_18_277
*484 FILLER_18_289
*485 FILLER_18_297
*486 FILLER_18_45
*487 FILLER_18_59
*488 FILLER_18_72
*489 FILLER_18_76
*490 FILLER_18_80
*491 FILLER_18_91
*492 FILLER_18_98
*493 FILLER_19_111
*494 FILLER_19_113
*495 FILLER_19_125
*496 FILLER_19_137
*497 FILLER_19_149
*498 FILLER_19_161
*499 FILLER_19_167
*500 FILLER_19_169
*501 FILLER_19_181
*502 FILLER_19_193
*503 FILLER_19_205
*504 FILLER_19_217
*505 FILLER_19_223
*506 FILLER_19_225
*507 FILLER_19_237
*508 FILLER_19_249
*509 FILLER_19_25
*510 FILLER_19_261
*511 FILLER_19_273
*512 FILLER_19_279
*513 FILLER_19_281
*514 FILLER_19_293
*515 FILLER_19_3
*516 FILLER_19_45
*517 FILLER_19_53
*518 FILLER_19_67
*519 FILLER_19_79
*520 FILLER_19_90
*521 FILLER_19_99
*522 FILLER_1_105
*523 FILLER_1_111
*524 FILLER_1_113
*525 FILLER_1_125
*526 FILLER_1_137
*527 FILLER_1_149
*528 FILLER_1_15
*529 FILLER_1_161
*530 FILLER_1_167
*531 FILLER_1_169
*532 FILLER_1_181
*533 FILLER_1_193
*534 FILLER_1_205
*535 FILLER_1_217
*536 FILLER_1_223
*537 FILLER_1_225
*538 FILLER_1_237
*539 FILLER_1_249
*540 FILLER_1_261
*541 FILLER_1_27
*542 FILLER_1_273
*543 FILLER_1_279
*544 FILLER_1_281
*545 FILLER_1_293
*546 FILLER_1_3
*547 FILLER_1_39
*548 FILLER_1_51
*549 FILLER_1_55
*550 FILLER_1_57
*551 FILLER_1_69
*552 FILLER_1_81
*553 FILLER_1_93
*554 FILLER_20_101
*555 FILLER_20_108
*556 FILLER_20_120
*557 FILLER_20_132
*558 FILLER_20_141
*559 FILLER_20_153
*560 FILLER_20_165
*561 FILLER_20_177
*562 FILLER_20_189
*563 FILLER_20_195
*564 FILLER_20_197
*565 FILLER_20_209
*566 FILLER_20_21
*567 FILLER_20_221
*568 FILLER_20_233
*569 FILLER_20_245
*570 FILLER_20_251
*571 FILLER_20_253
*572 FILLER_20_265
*573 FILLER_20_27
*574 FILLER_20_277
*575 FILLER_20_289
*576 FILLER_20_29
*577 FILLER_20_297
*578 FILLER_20_35
*579 FILLER_20_52
*580 FILLER_20_56
*581 FILLER_20_67
*582 FILLER_20_79
*583 FILLER_20_83
*584 FILLER_20_92
*585 FILLER_21_101
*586 FILLER_21_109
*587 FILLER_21_117
*588 FILLER_21_124
*589 FILLER_21_136
*590 FILLER_21_148
*591 FILLER_21_15
*592 FILLER_21_160
*593 FILLER_21_169
*594 FILLER_21_181
*595 FILLER_21_193
*596 FILLER_21_205
*597 FILLER_21_217
*598 FILLER_21_223
*599 FILLER_21_225
*600 FILLER_21_237
*601 FILLER_21_249
*602 FILLER_21_261
*603 FILLER_21_273
*604 FILLER_21_279
*605 FILLER_21_281
*606 FILLER_21_293
*607 FILLER_21_3
*608 FILLER_21_36
*609 FILLER_21_44
*610 FILLER_21_52
*611 FILLER_21_57
*612 FILLER_21_69
*613 FILLER_21_80
*614 FILLER_21_91
*615 FILLER_22_104
*616 FILLER_22_112
*617 FILLER_22_119
*618 FILLER_22_126
*619 FILLER_22_138
*620 FILLER_22_141
*621 FILLER_22_153
*622 FILLER_22_165
*623 FILLER_22_177
*624 FILLER_22_189
*625 FILLER_22_195
*626 FILLER_22_197
*627 FILLER_22_209
*628 FILLER_22_221
*629 FILLER_22_233
*630 FILLER_22_24
*631 FILLER_22_245
*632 FILLER_22_251
*633 FILLER_22_253
*634 FILLER_22_265
*635 FILLER_22_277
*636 FILLER_22_289
*637 FILLER_22_29
*638 FILLER_22_297
*639 FILLER_22_33
*640 FILLER_22_54
*641 FILLER_22_74
*642 FILLER_22_82
*643 FILLER_22_93
*644 FILLER_23_106
*645 FILLER_23_116
*646 FILLER_23_128
*647 FILLER_23_140
*648 FILLER_23_152
*649 FILLER_23_164
*650 FILLER_23_169
*651 FILLER_23_181
*652 FILLER_23_193
*653 FILLER_23_205
*654 FILLER_23_217
*655 FILLER_23_223
*656 FILLER_23_225
*657 FILLER_23_237
*658 FILLER_23_24
*659 FILLER_23_249
*660 FILLER_23_261
*661 FILLER_23_273
*662 FILLER_23_279
*663 FILLER_23_281
*664 FILLER_23_293
*665 FILLER_23_44
*666 FILLER_23_52
*667 FILLER_23_67
*668 FILLER_23_79
*669 FILLER_23_90
*670 FILLER_23_98
*671 FILLER_24_105
*672 FILLER_24_117
*673 FILLER_24_129
*674 FILLER_24_137
*675 FILLER_24_141
*676 FILLER_24_153
*677 FILLER_24_165
*678 FILLER_24_177
*679 FILLER_24_189
*680 FILLER_24_195
*681 FILLER_24_197
*682 FILLER_24_209
*683 FILLER_24_221
*684 FILLER_24_233
*685 FILLER_24_24
*686 FILLER_24_245
*687 FILLER_24_251
*688 FILLER_24_253
*689 FILLER_24_265
*690 FILLER_24_277
*691 FILLER_24_289
*692 FILLER_24_297
*693 FILLER_24_45
*694 FILLER_24_59
*695 FILLER_24_71
*696 FILLER_24_80
*697 FILLER_24_91
*698 FILLER_24_98
*699 FILLER_25_103
*700 FILLER_25_111
*701 FILLER_25_113
*702 FILLER_25_125
*703 FILLER_25_137
*704 FILLER_25_149
*705 FILLER_25_161
*706 FILLER_25_167
*707 FILLER_25_169
*708 FILLER_25_181
*709 FILLER_25_19
*710 FILLER_25_193
*711 FILLER_25_205
*712 FILLER_25_217
*713 FILLER_25_223
*714 FILLER_25_225
*715 FILLER_25_237
*716 FILLER_25_249
*717 FILLER_25_261
*718 FILLER_25_273
*719 FILLER_25_279
*720 FILLER_25_281
*721 FILLER_25_293
*722 FILLER_25_39
*723 FILLER_25_52
*724 FILLER_25_65
*725 FILLER_25_76
*726 FILLER_25_84
*727 FILLER_25_91
*728 FILLER_26_100
*729 FILLER_26_112
*730 FILLER_26_124
*731 FILLER_26_136
*732 FILLER_26_141
*733 FILLER_26_153
*734 FILLER_26_165
*735 FILLER_26_177
*736 FILLER_26_189
*737 FILLER_26_19
*738 FILLER_26_195
*739 FILLER_26_197
*740 FILLER_26_209
*741 FILLER_26_221
*742 FILLER_26_233
*743 FILLER_26_245
*744 FILLER_26_251
*745 FILLER_26_253
*746 FILLER_26_265
*747 FILLER_26_27
*748 FILLER_26_277
*749 FILLER_26_289
*750 FILLER_26_297
*751 FILLER_26_39
*752 FILLER_26_51
*753 FILLER_26_62
*754 FILLER_26_72
*755 FILLER_26_79
*756 FILLER_26_83
*757 FILLER_26_88
*758 FILLER_27_101
*759 FILLER_27_109
*760 FILLER_27_113
*761 FILLER_27_125
*762 FILLER_27_137
*763 FILLER_27_149
*764 FILLER_27_161
*765 FILLER_27_167
*766 FILLER_27_169
*767 FILLER_27_181
*768 FILLER_27_19
*769 FILLER_27_193
*770 FILLER_27_205
*771 FILLER_27_217
*772 FILLER_27_223
*773 FILLER_27_225
*774 FILLER_27_237
*775 FILLER_27_249
*776 FILLER_27_261
*777 FILLER_27_273
*778 FILLER_27_279
*779 FILLER_27_281
*780 FILLER_27_293
*781 FILLER_27_33
*782 FILLER_27_45
*783 FILLER_27_52
*784 FILLER_27_63
*785 FILLER_27_70
*786 FILLER_27_77
*787 FILLER_27_89
*788 FILLER_28_109
*789 FILLER_28_121
*790 FILLER_28_133
*791 FILLER_28_139
*792 FILLER_28_141
*793 FILLER_28_15
*794 FILLER_28_153
*795 FILLER_28_165
*796 FILLER_28_177
*797 FILLER_28_189
*798 FILLER_28_195
*799 FILLER_28_197
*800 FILLER_28_209
*801 FILLER_28_221
*802 FILLER_28_233
*803 FILLER_28_24
*804 FILLER_28_245
*805 FILLER_28_251
*806 FILLER_28_253
*807 FILLER_28_265
*808 FILLER_28_277
*809 FILLER_28_289
*810 FILLER_28_297
*811 FILLER_28_37
*812 FILLER_28_48
*813 FILLER_28_58
*814 FILLER_28_65
*815 FILLER_28_72
*816 FILLER_28_85
*817 FILLER_28_97
*818 FILLER_29_108
*819 FILLER_29_113
*820 FILLER_29_12
*821 FILLER_29_125
*822 FILLER_29_137
*823 FILLER_29_149
*824 FILLER_29_161
*825 FILLER_29_167
*826 FILLER_29_169
*827 FILLER_29_181
*828 FILLER_29_193
*829 FILLER_29_205
*830 FILLER_29_217
*831 FILLER_29_223
*832 FILLER_29_225
*833 FILLER_29_237
*834 FILLER_29_249
*835 FILLER_29_25
*836 FILLER_29_261
*837 FILLER_29_273
*838 FILLER_29_279
*839 FILLER_29_281
*840 FILLER_29_293
*841 FILLER_29_36
*842 FILLER_29_47
*843 FILLER_29_55
*844 FILLER_29_60
*845 FILLER_29_72
*846 FILLER_29_84
*847 FILLER_29_96
*848 FILLER_2_109
*849 FILLER_2_121
*850 FILLER_2_133
*851 FILLER_2_139
*852 FILLER_2_141
*853 FILLER_2_15
*854 FILLER_2_153
*855 FILLER_2_165
*856 FILLER_2_177
*857 FILLER_2_189
*858 FILLER_2_195
*859 FILLER_2_197
*860 FILLER_2_209
*861 FILLER_2_221
*862 FILLER_2_233
*863 FILLER_2_245
*864 FILLER_2_251
*865 FILLER_2_253
*866 FILLER_2_265
*867 FILLER_2_27
*868 FILLER_2_277
*869 FILLER_2_289
*870 FILLER_2_29
*871 FILLER_2_297
*872 FILLER_2_3
*873 FILLER_2_41
*874 FILLER_2_53
*875 FILLER_2_65
*876 FILLER_2_77
*877 FILLER_2_83
*878 FILLER_2_85
*879 FILLER_2_97
*880 FILLER_30_109
*881 FILLER_30_121
*882 FILLER_30_133
*883 FILLER_30_139
*884 FILLER_30_141
*885 FILLER_30_153
*886 FILLER_30_165
*887 FILLER_30_177
*888 FILLER_30_189
*889 FILLER_30_19
*890 FILLER_30_195
*891 FILLER_30_197
*892 FILLER_30_209
*893 FILLER_30_221
*894 FILLER_30_233
*895 FILLER_30_245
*896 FILLER_30_251
*897 FILLER_30_253
*898 FILLER_30_265
*899 FILLER_30_27
*900 FILLER_30_277
*901 FILLER_30_289
*902 FILLER_30_297
*903 FILLER_30_3
*904 FILLER_30_36
*905 FILLER_30_44
*906 FILLER_30_51
*907 FILLER_30_63
*908 FILLER_30_75
*909 FILLER_30_83
*910 FILLER_30_85
*911 FILLER_30_97
*912 FILLER_31_10
*913 FILLER_31_105
*914 FILLER_31_111
*915 FILLER_31_113
*916 FILLER_31_125
*917 FILLER_31_137
*918 FILLER_31_149
*919 FILLER_31_161
*920 FILLER_31_167
*921 FILLER_31_169
*922 FILLER_31_181
*923 FILLER_31_193
*924 FILLER_31_205
*925 FILLER_31_21
*926 FILLER_31_217
*927 FILLER_31_223
*928 FILLER_31_225
*929 FILLER_31_237
*930 FILLER_31_249
*931 FILLER_31_261
*932 FILLER_31_273
*933 FILLER_31_279
*934 FILLER_31_281
*935 FILLER_31_293
*936 FILLER_31_31
*937 FILLER_31_38
*938 FILLER_31_50
*939 FILLER_31_57
*940 FILLER_31_69
*941 FILLER_31_81
*942 FILLER_31_93
*943 FILLER_32_109
*944 FILLER_32_12
*945 FILLER_32_121
*946 FILLER_32_133
*947 FILLER_32_139
*948 FILLER_32_141
*949 FILLER_32_153
*950 FILLER_32_165
*951 FILLER_32_177
*952 FILLER_32_189
*953 FILLER_32_195
*954 FILLER_32_197
*955 FILLER_32_209
*956 FILLER_32_22
*957 FILLER_32_221
*958 FILLER_32_233
*959 FILLER_32_245
*960 FILLER_32_251
*961 FILLER_32_253
*962 FILLER_32_265
*963 FILLER_32_277
*964 FILLER_32_289
*965 FILLER_32_297
*966 FILLER_32_3
*967 FILLER_32_33
*968 FILLER_32_40
*969 FILLER_32_52
*970 FILLER_32_64
*971 FILLER_32_76
*972 FILLER_32_85
*973 FILLER_32_97
*974 FILLER_33_105
*975 FILLER_33_111
*976 FILLER_33_113
*977 FILLER_33_125
*978 FILLER_33_137
*979 FILLER_33_149
*980 FILLER_33_15
*981 FILLER_33_161
*982 FILLER_33_167
*983 FILLER_33_169
*984 FILLER_33_181
*985 FILLER_33_193
*986 FILLER_33_205
*987 FILLER_33_217
*988 FILLER_33_223
*989 FILLER_33_225
*990 FILLER_33_237
*991 FILLER_33_24
*992 FILLER_33_249
*993 FILLER_33_261
*994 FILLER_33_273
*995 FILLER_33_279
*996 FILLER_33_281
*997 FILLER_33_293
*998 FILLER_33_3
*999 FILLER_33_32
*1000 FILLER_33_39
*1001 FILLER_33_51
*1002 FILLER_33_55
*1003 FILLER_33_57
*1004 FILLER_33_69
*1005 FILLER_33_81
*1006 FILLER_33_93
*1007 FILLER_34_109
*1008 FILLER_34_121
*1009 FILLER_34_133
*1010 FILLER_34_139
*1011 FILLER_34_14
*1012 FILLER_34_141
*1013 FILLER_34_153
*1014 FILLER_34_165
*1015 FILLER_34_177
*1016 FILLER_34_189
*1017 FILLER_34_195
*1018 FILLER_34_197
*1019 FILLER_34_209
*1020 FILLER_34_221
*1021 FILLER_34_233
*1022 FILLER_34_24
*1023 FILLER_34_245
*1024 FILLER_34_251
*1025 FILLER_34_253
*1026 FILLER_34_265
*1027 FILLER_34_277
*1028 FILLER_34_289
*1029 FILLER_34_297
*1030 FILLER_34_3
*1031 FILLER_34_33
*1032 FILLER_34_45
*1033 FILLER_34_57
*1034 FILLER_34_69
*1035 FILLER_34_81
*1036 FILLER_34_85
*1037 FILLER_34_97
*1038 FILLER_35_105
*1039 FILLER_35_11
*1040 FILLER_35_111
*1041 FILLER_35_113
*1042 FILLER_35_125
*1043 FILLER_35_137
*1044 FILLER_35_149
*1045 FILLER_35_161
*1046 FILLER_35_167
*1047 FILLER_35_169
*1048 FILLER_35_181
*1049 FILLER_35_193
*1050 FILLER_35_205
*1051 FILLER_35_217
*1052 FILLER_35_22
*1053 FILLER_35_223
*1054 FILLER_35_225
*1055 FILLER_35_237
*1056 FILLER_35_249
*1057 FILLER_35_261
*1058 FILLER_35_273
*1059 FILLER_35_279
*1060 FILLER_35_281
*1061 FILLER_35_293
*1062 FILLER_35_31
*1063 FILLER_35_39
*1064 FILLER_35_46
*1065 FILLER_35_54
*1066 FILLER_35_57
*1067 FILLER_35_69
*1068 FILLER_35_81
*1069 FILLER_35_93
*1070 FILLER_36_109
*1071 FILLER_36_12
*1072 FILLER_36_121
*1073 FILLER_36_133
*1074 FILLER_36_139
*1075 FILLER_36_141
*1076 FILLER_36_153
*1077 FILLER_36_165
*1078 FILLER_36_177
*1079 FILLER_36_189
*1080 FILLER_36_195
*1081 FILLER_36_197
*1082 FILLER_36_209
*1083 FILLER_36_22
*1084 FILLER_36_221
*1085 FILLER_36_233
*1086 FILLER_36_245
*1087 FILLER_36_251
*1088 FILLER_36_253
*1089 FILLER_36_265
*1090 FILLER_36_277
*1091 FILLER_36_289
*1092 FILLER_36_297
*1093 FILLER_36_33
*1094 FILLER_36_41
*1095 FILLER_36_53
*1096 FILLER_36_65
*1097 FILLER_36_77
*1098 FILLER_36_83
*1099 FILLER_36_85
*1100 FILLER_36_97
*1101 FILLER_37_10
*1102 FILLER_37_105
*1103 FILLER_37_111
*1104 FILLER_37_113
*1105 FILLER_37_125
*1106 FILLER_37_137
*1107 FILLER_37_149
*1108 FILLER_37_161
*1109 FILLER_37_167
*1110 FILLER_37_169
*1111 FILLER_37_181
*1112 FILLER_37_193
*1113 FILLER_37_20
*1114 FILLER_37_205
*1115 FILLER_37_217
*1116 FILLER_37_223
*1117 FILLER_37_225
*1118 FILLER_37_237
*1119 FILLER_37_249
*1120 FILLER_37_261
*1121 FILLER_37_273
*1122 FILLER_37_279
*1123 FILLER_37_281
*1124 FILLER_37_29
*1125 FILLER_37_293
*1126 FILLER_37_36
*1127 FILLER_37_48
*1128 FILLER_37_57
*1129 FILLER_37_69
*1130 FILLER_37_81
*1131 FILLER_37_93
*1132 FILLER_38_10
*1133 FILLER_38_109
*1134 FILLER_38_121
*1135 FILLER_38_133
*1136 FILLER_38_139
*1137 FILLER_38_141
*1138 FILLER_38_153
*1139 FILLER_38_165
*1140 FILLER_38_177
*1141 FILLER_38_189
*1142 FILLER_38_19
*1143 FILLER_38_195
*1144 FILLER_38_197
*1145 FILLER_38_209
*1146 FILLER_38_221
*1147 FILLER_38_233
*1148 FILLER_38_245
*1149 FILLER_38_251
*1150 FILLER_38_253
*1151 FILLER_38_265
*1152 FILLER_38_27
*1153 FILLER_38_277
*1154 FILLER_38_289
*1155 FILLER_38_29
*1156 FILLER_38_297
*1157 FILLER_38_41
*1158 FILLER_38_53
*1159 FILLER_38_65
*1160 FILLER_38_77
*1161 FILLER_38_83
*1162 FILLER_38_85
*1163 FILLER_38_97
*1164 FILLER_39_10
*1165 FILLER_39_105
*1166 FILLER_39_111
*1167 FILLER_39_113
*1168 FILLER_39_125
*1169 FILLER_39_137
*1170 FILLER_39_149
*1171 FILLER_39_161
*1172 FILLER_39_167
*1173 FILLER_39_169
*1174 FILLER_39_18
*1175 FILLER_39_181
*1176 FILLER_39_193
*1177 FILLER_39_205
*1178 FILLER_39_217
*1179 FILLER_39_223
*1180 FILLER_39_225
*1181 FILLER_39_237
*1182 FILLER_39_249
*1183 FILLER_39_261
*1184 FILLER_39_273
*1185 FILLER_39_279
*1186 FILLER_39_281
*1187 FILLER_39_293
*1188 FILLER_39_3
*1189 FILLER_39_30
*1190 FILLER_39_42
*1191 FILLER_39_54
*1192 FILLER_39_57
*1193 FILLER_39_69
*1194 FILLER_39_81
*1195 FILLER_39_93
*1196 FILLER_3_105
*1197 FILLER_3_111
*1198 FILLER_3_113
*1199 FILLER_3_125
*1200 FILLER_3_137
*1201 FILLER_3_149
*1202 FILLER_3_15
*1203 FILLER_3_161
*1204 FILLER_3_167
*1205 FILLER_3_169
*1206 FILLER_3_181
*1207 FILLER_3_193
*1208 FILLER_3_205
*1209 FILLER_3_217
*1210 FILLER_3_223
*1211 FILLER_3_225
*1212 FILLER_3_237
*1213 FILLER_3_249
*1214 FILLER_3_261
*1215 FILLER_3_27
*1216 FILLER_3_273
*1217 FILLER_3_279
*1218 FILLER_3_281
*1219 FILLER_3_293
*1220 FILLER_3_3
*1221 FILLER_3_39
*1222 FILLER_3_51
*1223 FILLER_3_55
*1224 FILLER_3_57
*1225 FILLER_3_69
*1226 FILLER_3_81
*1227 FILLER_3_93
*1228 FILLER_40_109
*1229 FILLER_40_121
*1230 FILLER_40_133
*1231 FILLER_40_139
*1232 FILLER_40_141
*1233 FILLER_40_153
*1234 FILLER_40_165
*1235 FILLER_40_177
*1236 FILLER_40_189
*1237 FILLER_40_195
*1238 FILLER_40_197
*1239 FILLER_40_20
*1240 FILLER_40_209
*1241 FILLER_40_221
*1242 FILLER_40_233
*1243 FILLER_40_245
*1244 FILLER_40_251
*1245 FILLER_40_253
*1246 FILLER_40_265
*1247 FILLER_40_277
*1248 FILLER_40_289
*1249 FILLER_40_29
*1250 FILLER_40_297
*1251 FILLER_40_41
*1252 FILLER_40_53
*1253 FILLER_40_65
*1254 FILLER_40_77
*1255 FILLER_40_8
*1256 FILLER_40_83
*1257 FILLER_40_85
*1258 FILLER_40_97
*1259 FILLER_41_105
*1260 FILLER_41_111
*1261 FILLER_41_113
*1262 FILLER_41_125
*1263 FILLER_41_137
*1264 FILLER_41_149
*1265 FILLER_41_161
*1266 FILLER_41_167
*1267 FILLER_41_169
*1268 FILLER_41_181
*1269 FILLER_41_19
*1270 FILLER_41_193
*1271 FILLER_41_205
*1272 FILLER_41_217
*1273 FILLER_41_223
*1274 FILLER_41_225
*1275 FILLER_41_237
*1276 FILLER_41_249
*1277 FILLER_41_261
*1278 FILLER_41_273
*1279 FILLER_41_279
*1280 FILLER_41_281
*1281 FILLER_41_293
*1282 FILLER_41_31
*1283 FILLER_41_43
*1284 FILLER_41_55
*1285 FILLER_41_57
*1286 FILLER_41_69
*1287 FILLER_41_7
*1288 FILLER_41_81
*1289 FILLER_41_93
*1290 FILLER_42_109
*1291 FILLER_42_121
*1292 FILLER_42_133
*1293 FILLER_42_139
*1294 FILLER_42_14
*1295 FILLER_42_141
*1296 FILLER_42_153
*1297 FILLER_42_165
*1298 FILLER_42_177
*1299 FILLER_42_189
*1300 FILLER_42_195
*1301 FILLER_42_197
*1302 FILLER_42_209
*1303 FILLER_42_221
*1304 FILLER_42_233
*1305 FILLER_42_245
*1306 FILLER_42_251
*1307 FILLER_42_253
*1308 FILLER_42_26
*1309 FILLER_42_265
*1310 FILLER_42_277
*1311 FILLER_42_289
*1312 FILLER_42_29
*1313 FILLER_42_297
*1314 FILLER_42_41
*1315 FILLER_42_53
*1316 FILLER_42_65
*1317 FILLER_42_7
*1318 FILLER_42_77
*1319 FILLER_42_83
*1320 FILLER_42_85
*1321 FILLER_42_97
*1322 FILLER_43_105
*1323 FILLER_43_111
*1324 FILLER_43_113
*1325 FILLER_43_125
*1326 FILLER_43_137
*1327 FILLER_43_149
*1328 FILLER_43_161
*1329 FILLER_43_167
*1330 FILLER_43_169
*1331 FILLER_43_181
*1332 FILLER_43_19
*1333 FILLER_43_193
*1334 FILLER_43_205
*1335 FILLER_43_217
*1336 FILLER_43_223
*1337 FILLER_43_225
*1338 FILLER_43_237
*1339 FILLER_43_249
*1340 FILLER_43_261
*1341 FILLER_43_273
*1342 FILLER_43_279
*1343 FILLER_43_281
*1344 FILLER_43_293
*1345 FILLER_43_3
*1346 FILLER_43_31
*1347 FILLER_43_43
*1348 FILLER_43_55
*1349 FILLER_43_57
*1350 FILLER_43_69
*1351 FILLER_43_7
*1352 FILLER_43_81
*1353 FILLER_43_93
*1354 FILLER_44_109
*1355 FILLER_44_121
*1356 FILLER_44_133
*1357 FILLER_44_139
*1358 FILLER_44_141
*1359 FILLER_44_15
*1360 FILLER_44_153
*1361 FILLER_44_165
*1362 FILLER_44_177
*1363 FILLER_44_189
*1364 FILLER_44_195
*1365 FILLER_44_197
*1366 FILLER_44_209
*1367 FILLER_44_221
*1368 FILLER_44_233
*1369 FILLER_44_245
*1370 FILLER_44_251
*1371 FILLER_44_253
*1372 FILLER_44_265
*1373 FILLER_44_27
*1374 FILLER_44_277
*1375 FILLER_44_289
*1376 FILLER_44_29
*1377 FILLER_44_297
*1378 FILLER_44_3
*1379 FILLER_44_41
*1380 FILLER_44_53
*1381 FILLER_44_65
*1382 FILLER_44_77
*1383 FILLER_44_83
*1384 FILLER_44_85
*1385 FILLER_44_97
*1386 FILLER_45_105
*1387 FILLER_45_111
*1388 FILLER_45_113
*1389 FILLER_45_125
*1390 FILLER_45_137
*1391 FILLER_45_149
*1392 FILLER_45_161
*1393 FILLER_45_167
*1394 FILLER_45_169
*1395 FILLER_45_181
*1396 FILLER_45_19
*1397 FILLER_45_193
*1398 FILLER_45_205
*1399 FILLER_45_217
*1400 FILLER_45_223
*1401 FILLER_45_225
*1402 FILLER_45_237
*1403 FILLER_45_249
*1404 FILLER_45_261
*1405 FILLER_45_273
*1406 FILLER_45_279
*1407 FILLER_45_281
*1408 FILLER_45_293
*1409 FILLER_45_31
*1410 FILLER_45_43
*1411 FILLER_45_55
*1412 FILLER_45_57
*1413 FILLER_45_69
*1414 FILLER_45_7
*1415 FILLER_45_81
*1416 FILLER_45_93
*1417 FILLER_46_109
*1418 FILLER_46_121
*1419 FILLER_46_133
*1420 FILLER_46_139
*1421 FILLER_46_141
*1422 FILLER_46_153
*1423 FILLER_46_165
*1424 FILLER_46_177
*1425 FILLER_46_18
*1426 FILLER_46_189
*1427 FILLER_46_195
*1428 FILLER_46_197
*1429 FILLER_46_209
*1430 FILLER_46_221
*1431 FILLER_46_233
*1432 FILLER_46_245
*1433 FILLER_46_251
*1434 FILLER_46_253
*1435 FILLER_46_26
*1436 FILLER_46_265
*1437 FILLER_46_277
*1438 FILLER_46_289
*1439 FILLER_46_29
*1440 FILLER_46_297
*1441 FILLER_46_41
*1442 FILLER_46_53
*1443 FILLER_46_6
*1444 FILLER_46_65
*1445 FILLER_46_77
*1446 FILLER_46_83
*1447 FILLER_46_85
*1448 FILLER_46_97
*1449 FILLER_47_105
*1450 FILLER_47_111
*1451 FILLER_47_113
*1452 FILLER_47_125
*1453 FILLER_47_137
*1454 FILLER_47_149
*1455 FILLER_47_15
*1456 FILLER_47_161
*1457 FILLER_47_167
*1458 FILLER_47_169
*1459 FILLER_47_181
*1460 FILLER_47_193
*1461 FILLER_47_205
*1462 FILLER_47_217
*1463 FILLER_47_223
*1464 FILLER_47_225
*1465 FILLER_47_237
*1466 FILLER_47_249
*1467 FILLER_47_261
*1468 FILLER_47_27
*1469 FILLER_47_273
*1470 FILLER_47_279
*1471 FILLER_47_281
*1472 FILLER_47_293
*1473 FILLER_47_3
*1474 FILLER_47_39
*1475 FILLER_47_51
*1476 FILLER_47_55
*1477 FILLER_47_57
*1478 FILLER_47_69
*1479 FILLER_47_81
*1480 FILLER_47_93
*1481 FILLER_48_109
*1482 FILLER_48_121
*1483 FILLER_48_133
*1484 FILLER_48_139
*1485 FILLER_48_141
*1486 FILLER_48_153
*1487 FILLER_48_165
*1488 FILLER_48_177
*1489 FILLER_48_189
*1490 FILLER_48_19
*1491 FILLER_48_195
*1492 FILLER_48_197
*1493 FILLER_48_209
*1494 FILLER_48_221
*1495 FILLER_48_233
*1496 FILLER_48_245
*1497 FILLER_48_251
*1498 FILLER_48_253
*1499 FILLER_48_265
*1500 FILLER_48_27
*1501 FILLER_48_277
*1502 FILLER_48_289
*1503 FILLER_48_29
*1504 FILLER_48_297
*1505 FILLER_48_41
*1506 FILLER_48_53
*1507 FILLER_48_65
*1508 FILLER_48_7
*1509 FILLER_48_77
*1510 FILLER_48_83
*1511 FILLER_48_85
*1512 FILLER_48_97
*1513 FILLER_49_105
*1514 FILLER_49_111
*1515 FILLER_49_113
*1516 FILLER_49_125
*1517 FILLER_49_137
*1518 FILLER_49_149
*1519 FILLER_49_15
*1520 FILLER_49_161
*1521 FILLER_49_167
*1522 FILLER_49_169
*1523 FILLER_49_181
*1524 FILLER_49_193
*1525 FILLER_49_205
*1526 FILLER_49_217
*1527 FILLER_49_223
*1528 FILLER_49_225
*1529 FILLER_49_237
*1530 FILLER_49_249
*1531 FILLER_49_261
*1532 FILLER_49_27
*1533 FILLER_49_273
*1534 FILLER_49_279
*1535 FILLER_49_281
*1536 FILLER_49_293
*1537 FILLER_49_3
*1538 FILLER_49_39
*1539 FILLER_49_51
*1540 FILLER_49_55
*1541 FILLER_49_57
*1542 FILLER_49_69
*1543 FILLER_49_81
*1544 FILLER_49_93
*1545 FILLER_4_109
*1546 FILLER_4_121
*1547 FILLER_4_133
*1548 FILLER_4_139
*1549 FILLER_4_141
*1550 FILLER_4_15
*1551 FILLER_4_153
*1552 FILLER_4_165
*1553 FILLER_4_177
*1554 FILLER_4_189
*1555 FILLER_4_195
*1556 FILLER_4_197
*1557 FILLER_4_209
*1558 FILLER_4_221
*1559 FILLER_4_233
*1560 FILLER_4_245
*1561 FILLER_4_251
*1562 FILLER_4_253
*1563 FILLER_4_265
*1564 FILLER_4_27
*1565 FILLER_4_277
*1566 FILLER_4_289
*1567 FILLER_4_29
*1568 FILLER_4_297
*1569 FILLER_4_3
*1570 FILLER_4_41
*1571 FILLER_4_53
*1572 FILLER_4_65
*1573 FILLER_4_77
*1574 FILLER_4_83
*1575 FILLER_4_85
*1576 FILLER_4_97
*1577 FILLER_50_109
*1578 FILLER_50_121
*1579 FILLER_50_133
*1580 FILLER_50_139
*1581 FILLER_50_141
*1582 FILLER_50_15
*1583 FILLER_50_153
*1584 FILLER_50_165
*1585 FILLER_50_177
*1586 FILLER_50_189
*1587 FILLER_50_195
*1588 FILLER_50_197
*1589 FILLER_50_209
*1590 FILLER_50_221
*1591 FILLER_50_233
*1592 FILLER_50_245
*1593 FILLER_50_251
*1594 FILLER_50_253
*1595 FILLER_50_265
*1596 FILLER_50_27
*1597 FILLER_50_277
*1598 FILLER_50_289
*1599 FILLER_50_29
*1600 FILLER_50_297
*1601 FILLER_50_3
*1602 FILLER_50_41
*1603 FILLER_50_53
*1604 FILLER_50_65
*1605 FILLER_50_77
*1606 FILLER_50_83
*1607 FILLER_50_85
*1608 FILLER_50_97
*1609 FILLER_51_105
*1610 FILLER_51_111
*1611 FILLER_51_113
*1612 FILLER_51_125
*1613 FILLER_51_137
*1614 FILLER_51_149
*1615 FILLER_51_161
*1616 FILLER_51_167
*1617 FILLER_51_169
*1618 FILLER_51_181
*1619 FILLER_51_19
*1620 FILLER_51_193
*1621 FILLER_51_205
*1622 FILLER_51_217
*1623 FILLER_51_223
*1624 FILLER_51_225
*1625 FILLER_51_237
*1626 FILLER_51_249
*1627 FILLER_51_261
*1628 FILLER_51_273
*1629 FILLER_51_279
*1630 FILLER_51_281
*1631 FILLER_51_293
*1632 FILLER_51_31