*SPEF "ieee 1481-1999"
*DESIGN "user_module_341609034095264340"
*DATE "11:11:11 Fri 11 11, 1111"
*VENDOR "OpenRCX"
*PROGRAM "Parallel Extraction"
*VERSION "1.0"
*DESIGN_FLOW "NAME_SCOPE LOCAL" "PIN_CAP NONE"
*DIVIDER /
*DELIMITER :
*BUS_DELIMITER []
*T_UNIT 1 NS
*C_UNIT 1 PF
*R_UNIT 1 OHM
*L_UNIT 1 HENRY

*NAME_MAP
*1 io_in[0]
*2 io_in[1]
*3 io_in[2]
*4 io_in[3]
*5 io_in[4]
*6 io_in[5]
*7 io_in[6]
*8 io_in[7]
*9 io_out[0]
*10 io_out[1]
*11 io_out[2]
*12 io_out[3]
*13 io_out[4]
*14 io_out[5]
*15 io_out[6]
*16 io_out[7]
*19 _00_
*20 _01_
*21 _02_
*22 _03_
*23 _04_
*24 _05_
*25 _06_
*26 _07_
*27 _08_
*28 _09_
*29 _10_
*30 _11_
*31 _12_
*32 _13_
*33 _14_
*34 _15_
*35 clknet_0_io_in[0]
*36 clknet_1_0__leaf_io_in[0]
*37 clknet_1_1__leaf_io_in[0]
*38 flipflop1\.d
*39 flipflop1\.q
*40 flipflop2\.clk
*41 flipflop2\.d
*42 flipflop2\.q
*43 flipflop3\.clk
*44 flipflop3\.d
*45 flipflop3\.q
*46 flipflop5\.clk
*47 flipflop5\.d
*48 flipflop5\.q
*49 flipflop6\.d
*50 flipflop6\.q
*51 gate27\.out
*52 gate32\.out
*53 gate40\.out
*54 gate45\.out
*55 gate47\.out
*56 gate49\.out
*57 gate52\.out
*58 net1
*59 net2
*60 net3
*61 net4
*62 net5
*63 FILLER_0_109
*64 FILLER_0_113
*65 FILLER_0_125
*66 FILLER_0_137
*67 FILLER_0_141
*68 FILLER_0_153
*69 FILLER_0_165
*70 FILLER_0_169
*71 FILLER_0_181
*72 FILLER_0_193
*73 FILLER_0_197
*74 FILLER_0_209
*75 FILLER_0_221
*76 FILLER_0_225
*77 FILLER_0_237
*78 FILLER_0_24
*79 FILLER_0_249
*80 FILLER_0_253
*81 FILLER_0_265
*82 FILLER_0_277
*83 FILLER_0_281
*84 FILLER_0_29
*85 FILLER_0_293
*86 FILLER_0_3
*87 FILLER_0_33
*88 FILLER_0_50
*89 FILLER_0_57
*90 FILLER_0_69
*91 FILLER_0_81
*92 FILLER_0_85
*93 FILLER_0_97
*94 FILLER_10_109
*95 FILLER_10_121
*96 FILLER_10_133
*97 FILLER_10_139
*98 FILLER_10_141
*99 FILLER_10_15
*100 FILLER_10_153
*101 FILLER_10_165
*102 FILLER_10_177
*103 FILLER_10_189
*104 FILLER_10_195
*105 FILLER_10_197
*106 FILLER_10_209
*107 FILLER_10_221
*108 FILLER_10_233
*109 FILLER_10_245
*110 FILLER_10_251
*111 FILLER_10_253
*112 FILLER_10_265
*113 FILLER_10_27
*114 FILLER_10_277
*115 FILLER_10_289
*116 FILLER_10_29
*117 FILLER_10_297
*118 FILLER_10_3
*119 FILLER_10_41
*120 FILLER_10_53
*121 FILLER_10_65
*122 FILLER_10_77
*123 FILLER_10_83
*124 FILLER_10_85
*125 FILLER_10_97
*126 FILLER_11_105
*127 FILLER_11_111
*128 FILLER_11_113
*129 FILLER_11_125
*130 FILLER_11_137
*131 FILLER_11_149
*132 FILLER_11_15
*133 FILLER_11_161
*134 FILLER_11_167
*135 FILLER_11_169
*136 FILLER_11_181
*137 FILLER_11_193
*138 FILLER_11_205
*139 FILLER_11_217
*140 FILLER_11_223
*141 FILLER_11_225
*142 FILLER_11_237
*143 FILLER_11_249
*144 FILLER_11_261
*145 FILLER_11_27
*146 FILLER_11_273
*147 FILLER_11_279
*148 FILLER_11_281
*149 FILLER_11_293
*150 FILLER_11_3
*151 FILLER_11_39
*152 FILLER_11_51
*153 FILLER_11_55
*154 FILLER_11_57
*155 FILLER_11_69
*156 FILLER_11_81
*157 FILLER_11_93
*158 FILLER_12_109
*159 FILLER_12_121
*160 FILLER_12_133
*161 FILLER_12_139
*162 FILLER_12_141
*163 FILLER_12_15
*164 FILLER_12_153
*165 FILLER_12_165
*166 FILLER_12_177
*167 FILLER_12_189
*168 FILLER_12_195
*169 FILLER_12_197
*170 FILLER_12_209
*171 FILLER_12_221
*172 FILLER_12_233
*173 FILLER_12_245
*174 FILLER_12_251
*175 FILLER_12_253
*176 FILLER_12_265
*177 FILLER_12_27
*178 FILLER_12_277
*179 FILLER_12_289
*180 FILLER_12_29
*181 FILLER_12_297
*182 FILLER_12_3
*183 FILLER_12_41
*184 FILLER_12_53
*185 FILLER_12_65
*186 FILLER_12_77
*187 FILLER_12_83
*188 FILLER_12_85
*189 FILLER_12_97
*190 FILLER_13_105
*191 FILLER_13_111
*192 FILLER_13_113
*193 FILLER_13_125
*194 FILLER_13_137
*195 FILLER_13_149
*196 FILLER_13_15
*197 FILLER_13_161
*198 FILLER_13_167
*199 FILLER_13_169
*200 FILLER_13_181
*201 FILLER_13_193
*202 FILLER_13_205
*203 FILLER_13_217
*204 FILLER_13_223
*205 FILLER_13_225
*206 FILLER_13_237
*207 FILLER_13_249
*208 FILLER_13_261
*209 FILLER_13_27
*210 FILLER_13_273
*211 FILLER_13_279
*212 FILLER_13_281
*213 FILLER_13_293
*214 FILLER_13_3
*215 FILLER_13_39
*216 FILLER_13_51
*217 FILLER_13_55
*218 FILLER_13_57
*219 FILLER_13_69
*220 FILLER_13_81
*221 FILLER_13_93
*222 FILLER_14_109
*223 FILLER_14_121
*224 FILLER_14_133
*225 FILLER_14_139
*226 FILLER_14_141
*227 FILLER_14_15
*228 FILLER_14_153
*229 FILLER_14_165
*230 FILLER_14_177
*231 FILLER_14_189
*232 FILLER_14_195
*233 FILLER_14_197
*234 FILLER_14_209
*235 FILLER_14_221
*236 FILLER_14_233
*237 FILLER_14_245
*238 FILLER_14_251
*239 FILLER_14_253
*240 FILLER_14_265
*241 FILLER_14_27
*242 FILLER_14_277
*243 FILLER_14_289
*244 FILLER_14_29
*245 FILLER_14_297
*246 FILLER_14_3
*247 FILLER_14_41
*248 FILLER_14_53
*249 FILLER_14_65
*250 FILLER_14_77
*251 FILLER_14_83
*252 FILLER_14_85
*253 FILLER_14_97
*254 FILLER_15_105
*255 FILLER_15_111
*256 FILLER_15_113
*257 FILLER_15_125
*258 FILLER_15_137
*259 FILLER_15_149
*260 FILLER_15_15
*261 FILLER_15_161
*262 FILLER_15_167
*263 FILLER_15_169
*264 FILLER_15_181
*265 FILLER_15_193
*266 FILLER_15_205
*267 FILLER_15_217
*268 FILLER_15_223
*269 FILLER_15_225
*270 FILLER_15_237
*271 FILLER_15_249
*272 FILLER_15_261
*273 FILLER_15_27
*274 FILLER_15_273
*275 FILLER_15_279
*276 FILLER_15_281
*277 FILLER_15_293
*278 FILLER_15_3
*279 FILLER_15_39
*280 FILLER_15_51
*281 FILLER_15_55
*282 FILLER_15_57
*283 FILLER_15_69
*284 FILLER_15_81
*285 FILLER_15_93
*286 FILLER_16_109
*287 FILLER_16_121
*288 FILLER_16_133
*289 FILLER_16_139
*290 FILLER_16_141
*291 FILLER_16_153
*292 FILLER_16_165
*293 FILLER_16_177
*294 FILLER_16_18
*295 FILLER_16_189
*296 FILLER_16_195
*297 FILLER_16_197
*298 FILLER_16_209
*299 FILLER_16_221
*300 FILLER_16_233
*301 FILLER_16_245
*302 FILLER_16_251
*303 FILLER_16_253
*304 FILLER_16_26
*305 FILLER_16_265
*306 FILLER_16_277
*307 FILLER_16_289
*308 FILLER_16_29
*309 FILLER_16_297
*310 FILLER_16_41
*311 FILLER_16_53
*312 FILLER_16_6
*313 FILLER_16_65
*314 FILLER_16_77
*315 FILLER_16_83
*316 FILLER_16_85
*317 FILLER_16_97
*318 FILLER_17_105
*319 FILLER_17_111
*320 FILLER_17_113
*321 FILLER_17_125
*322 FILLER_17_137
*323 FILLER_17_149
*324 FILLER_17_15
*325 FILLER_17_161
*326 FILLER_17_167
*327 FILLER_17_169
*328 FILLER_17_181
*329 FILLER_17_193
*330 FILLER_17_205
*331 FILLER_17_217
*332 FILLER_17_223
*333 FILLER_17_225
*334 FILLER_17_237
*335 FILLER_17_249
*336 FILLER_17_261
*337 FILLER_17_27
*338 FILLER_17_273
*339 FILLER_17_279
*340 FILLER_17_281
*341 FILLER_17_293
*342 FILLER_17_3
*343 FILLER_17_39
*344 FILLER_17_51
*345 FILLER_17_55
*346 FILLER_17_57
*347 FILLER_17_69
*348 FILLER_17_81
*349 FILLER_17_93
*350 FILLER_18_109
*351 FILLER_18_121
*352 FILLER_18_133
*353 FILLER_18_139
*354 FILLER_18_141
*355 FILLER_18_15
*356 FILLER_18_153
*357 FILLER_18_165
*358 FILLER_18_177
*359 FILLER_18_189
*360 FILLER_18_195
*361 FILLER_18_197
*362 FILLER_18_209
*363 FILLER_18_221
*364 FILLER_18_233
*365 FILLER_18_245
*366 FILLER_18_251
*367 FILLER_18_253
*368 FILLER_18_265
*369 FILLER_18_27
*370 FILLER_18_277
*371 FILLER_18_289
*372 FILLER_18_29
*373 FILLER_18_297
*374 FILLER_18_3
*375 FILLER_18_41
*376 FILLER_18_53
*377 FILLER_18_65
*378 FILLER_18_77
*379 FILLER_18_83
*380 FILLER_18_85
*381 FILLER_18_97
*382 FILLER_19_105
*383 FILLER_19_111
*384 FILLER_19_113
*385 FILLER_19_125
*386 FILLER_19_137
*387 FILLER_19_149
*388 FILLER_19_15
*389 FILLER_19_161
*390 FILLER_19_167
*391 FILLER_19_169
*392 FILLER_19_181
*393 FILLER_19_193
*394 FILLER_19_205
*395 FILLER_19_217
*396 FILLER_19_223
*397 FILLER_19_225
*398 FILLER_19_237
*399 FILLER_19_249
*400 FILLER_19_261
*401 FILLER_19_27
*402 FILLER_19_273
*403 FILLER_19_279
*404 FILLER_19_281
*405 FILLER_19_293
*406 FILLER_19_3
*407 FILLER_19_39
*408 FILLER_19_51
*409 FILLER_19_55
*410 FILLER_19_57
*411 FILLER_19_69
*412 FILLER_19_81
*413 FILLER_19_93
*414 FILLER_1_105
*415 FILLER_1_111
*416 FILLER_1_113
*417 FILLER_1_125
*418 FILLER_1_13
*419 FILLER_1_137
*420 FILLER_1_149
*421 FILLER_1_161
*422 FILLER_1_167
*423 FILLER_1_169
*424 FILLER_1_181
*425 FILLER_1_193
*426 FILLER_1_205
*427 FILLER_1_217
*428 FILLER_1_223
*429 FILLER_1_225
*430 FILLER_1_237
*431 FILLER_1_249
*432 FILLER_1_261
*433 FILLER_1_273
*434 FILLER_1_279
*435 FILLER_1_281
*436 FILLER_1_293
*437 FILLER_1_3
*438 FILLER_1_34
*439 FILLER_1_46
*440 FILLER_1_54
*441 FILLER_1_57
*442 FILLER_1_69
*443 FILLER_1_81
*444 FILLER_1_93
*445 FILLER_20_109
*446 FILLER_20_121
*447 FILLER_20_133
*448 FILLER_20_139
*449 FILLER_20_141
*450 FILLER_20_153
*451 FILLER_20_165
*452 FILLER_20_177
*453 FILLER_20_18
*454 FILLER_20_189
*455 FILLER_20_195
*456 FILLER_20_197
*457 FILLER_20_209
*458 FILLER_20_221
*459 FILLER_20_233
*460 FILLER_20_245
*461 FILLER_20_251
*462 FILLER_20_253
*463 FILLER_20_26
*464 FILLER_20_265
*465 FILLER_20_277
*466 FILLER_20_289
*467 FILLER_20_29
*468 FILLER_20_297
*469 FILLER_20_41
*470 FILLER_20_53
*471 FILLER_20_6
*472 FILLER_20_65
*473 FILLER_20_77
*474 FILLER_20_83
*475 FILLER_20_85
*476 FILLER_20_97
*477 FILLER_21_105
*478 FILLER_21_111
*479 FILLER_21_113
*480 FILLER_21_125
*481 FILLER_21_137
*482 FILLER_21_149
*483 FILLER_21_15
*484 FILLER_21_161
*485 FILLER_21_167
*486 FILLER_21_169
*487 FILLER_21_181
*488 FILLER_21_193
*489 FILLER_21_205
*490 FILLER_21_217
*491 FILLER_21_223
*492 FILLER_21_225
*493 FILLER_21_237
*494 FILLER_21_249
*495 FILLER_21_261
*496 FILLER_21_27
*497 FILLER_21_273
*498 FILLER_21_279
*499 FILLER_21_281
*500 FILLER_21_293
*501 FILLER_21_3
*502 FILLER_21_39
*503 FILLER_21_51
*504 FILLER_21_55
*505 FILLER_21_57
*506 FILLER_21_69
*507 FILLER_21_81
*508 FILLER_21_93
*509 FILLER_22_109
*510 FILLER_22_121
*511 FILLER_22_133
*512 FILLER_22_139
*513 FILLER_22_141
*514 FILLER_22_15
*515 FILLER_22_153
*516 FILLER_22_165
*517 FILLER_22_177
*518 FILLER_22_189
*519 FILLER_22_195
*520 FILLER_22_197
*521 FILLER_22_209
*522 FILLER_22_221
*523 FILLER_22_233
*524 FILLER_22_245
*525 FILLER_22_251
*526 FILLER_22_253
*527 FILLER_22_265
*528 FILLER_22_27
*529 FILLER_22_277
*530 FILLER_22_289
*531 FILLER_22_29
*532 FILLER_22_297
*533 FILLER_22_3
*534 FILLER_22_41
*535 FILLER_22_53
*536 FILLER_22_65
*537 FILLER_22_77
*538 FILLER_22_83
*539 FILLER_22_85
*540 FILLER_22_97
*541 FILLER_23_105
*542 FILLER_23_111
*543 FILLER_23_113
*544 FILLER_23_125
*545 FILLER_23_137
*546 FILLER_23_14
*547 FILLER_23_149
*548 FILLER_23_161
*549 FILLER_23_167
*550 FILLER_23_169
*551 FILLER_23_181
*552 FILLER_23_193
*553 FILLER_23_205
*554 FILLER_23_217
*555 FILLER_23_223
*556 FILLER_23_225
*557 FILLER_23_237
*558 FILLER_23_249
*559 FILLER_23_26
*560 FILLER_23_261
*561 FILLER_23_273
*562 FILLER_23_279
*563 FILLER_23_281
*564 FILLER_23_293
*565 FILLER_23_3
*566 FILLER_23_38
*567 FILLER_23_50
*568 FILLER_23_57
*569 FILLER_23_69
*570 FILLER_23_81
*571 FILLER_23_93
*572 FILLER_24_109
*573 FILLER_24_121
*574 FILLER_24_13
*575 FILLER_24_133
*576 FILLER_24_139
*577 FILLER_24_141
*578 FILLER_24_153
*579 FILLER_24_165
*580 FILLER_24_177
*581 FILLER_24_189
*582 FILLER_24_195
*583 FILLER_24_197
*584 FILLER_24_209
*585 FILLER_24_221
*586 FILLER_24_233
*587 FILLER_24_245
*588 FILLER_24_25
*589 FILLER_24_251
*590 FILLER_24_253
*591 FILLER_24_265
*592 FILLER_24_277
*593 FILLER_24_289
*594 FILLER_24_29
*595 FILLER_24_297
*596 FILLER_24_41
*597 FILLER_24_53
*598 FILLER_24_6
*599 FILLER_24_65
*600 FILLER_24_77
*601 FILLER_24_83
*602 FILLER_24_85
*603 FILLER_24_97
*604 FILLER_25_10
*605 FILLER_25_105
*606 FILLER_25_111
*607 FILLER_25_113
*608 FILLER_25_125
*609 FILLER_25_137
*610 FILLER_25_149
*611 FILLER_25_161
*612 FILLER_25_167
*613 FILLER_25_169
*614 FILLER_25_17
*615 FILLER_25_181
*616 FILLER_25_193
*617 FILLER_25_205
*618 FILLER_25_217
*619 FILLER_25_223
*620 FILLER_25_225
*621 FILLER_25_237
*622 FILLER_25_249
*623 FILLER_25_261
*624 FILLER_25_273
*625 FILLER_25_279
*626 FILLER_25_281
*627 FILLER_25_29
*628 FILLER_25_293
*629 FILLER_25_3
*630 FILLER_25_41
*631 FILLER_25_53
*632 FILLER_25_57
*633 FILLER_25_69
*634 FILLER_25_81
*635 FILLER_25_93
*636 FILLER_26_109
*637 FILLER_26_121
*638 FILLER_26_133
*639 FILLER_26_139
*640 FILLER_26_141
*641 FILLER_26_153
*642 FILLER_26_16
*643 FILLER_26_165
*644 FILLER_26_177
*645 FILLER_26_189
*646 FILLER_26_195
*647 FILLER_26_197
*648 FILLER_26_209
*649 FILLER_26_221
*650 FILLER_26_23
*651 FILLER_26_233
*652 FILLER_26_245
*653 FILLER_26_251
*654 FILLER_26_253
*655 FILLER_26_265
*656 FILLER_26_27
*657 FILLER_26_277
*658 FILLER_26_289
*659 FILLER_26_297
*660 FILLER_26_3
*661 FILLER_26_39
*662 FILLER_26_51
*663 FILLER_26_63
*664 FILLER_26_7
*665 FILLER_26_75
*666 FILLER_26_83
*667 FILLER_26_85
*668 FILLER_26_97
*669 FILLER_27_10
*670 FILLER_27_105
*671 FILLER_27_111
*672 FILLER_27_113
*673 FILLER_27_125
*674 FILLER_27_137
*675 FILLER_27_149
*676 FILLER_27_161
*677 FILLER_27_167
*678 FILLER_27_169
*679 FILLER_27_18
*680 FILLER_27_181
*681 FILLER_27_193
*682 FILLER_27_205
*683 FILLER_27_217
*684 FILLER_27_223
*685 FILLER_27_225
*686 FILLER_27_237
*687 FILLER_27_249
*688 FILLER_27_26
*689 FILLER_27_261
*690 FILLER_27_273
*691 FILLER_27_279
*692 FILLER_27_281
*693 FILLER_27_293
*694 FILLER_27_3
*695 FILLER_27_38
*696 FILLER_27_50
*697 FILLER_27_57
*698 FILLER_27_69
*699 FILLER_27_81
*700 FILLER_27_93
*701 FILLER_28_109
*702 FILLER_28_121
*703 FILLER_28_13
*704 FILLER_28_133
*705 FILLER_28_139
*706 FILLER_28_141
*707 FILLER_28_153
*708 FILLER_28_165
*709 FILLER_28_177
*710 FILLER_28_189
*711 FILLER_28_195
*712 FILLER_28_197
*713 FILLER_28_20
*714 FILLER_28_209
*715 FILLER_28_221
*716 FILLER_28_233
*717 FILLER_28_245
*718 FILLER_28_251
*719 FILLER_28_253
*720 FILLER_28_265
*721 FILLER_28_277
*722 FILLER_28_289
*723 FILLER_28_297
*724 FILLER_28_35
*725 FILLER_28_47
*726 FILLER_28_59
*727 FILLER_28_6
*728 FILLER_28_71
*729 FILLER_28_83
*730 FILLER_28_85
*731 FILLER_28_97
*732 FILLER_29_105
*733 FILLER_29_11
*734 FILLER_29_111
*735 FILLER_29_113
*736 FILLER_29_125
*737 FILLER_29_137
*738 FILLER_29_149
*739 FILLER_29_161
*740 FILLER_29_167
*741 FILLER_29_169
*742 FILLER_29_17
*743 FILLER_29_181
*744 FILLER_29_193
*745 FILLER_29_205
*746 FILLER_29_217
*747 FILLER_29_223
*748 FILLER_29_225
*749 FILLER_29_237
*750 FILLER_29_24
*751 FILLER_29_249
*752 FILLER_29_261
*753 FILLER_29_273
*754 FILLER_29_279
*755 FILLER_29_281
*756 FILLER_29_293
*757 FILLER_29_3
*758 FILLER_29_36
*759 FILLER_29_48
*760 FILLER_29_57
*761 FILLER_29_69
*762 FILLER_29_81
*763 FILLER_29_93
*764 FILLER_2_109
*765 FILLER_2_121
*766 FILLER_2_133
*767 FILLER_2_139
*768 FILLER_2_141
*769 FILLER_2_153
*770 FILLER_2_165
*771 FILLER_2_177
*772 FILLER_2_189
*773 FILLER_2_195
*774 FILLER_2_197
*775 FILLER_2_209
*776 FILLER_2_221
*777 FILLER_2_233
*778 FILLER_2_24
*779 FILLER_2_245
*780 FILLER_2_251
*781 FILLER_2_253
*782 FILLER_2_265
*783 FILLER_2_277
*784 FILLER_2_289
*785 FILLER_2_297
*786 FILLER_2_3
*787 FILLER_2_37
*788 FILLER_2_65
*789 FILLER_2_77
*790 FILLER_2_83
*791 FILLER_2_85
*792 FILLER_2_97
*793 FILLER_30_109
*794 FILLER_30_121
*795 FILLER_30_13
*796 FILLER_30_133
*797 FILLER_30_139
*798 FILLER_30_141
*799 FILLER_30_153
*800 FILLER_30_165
*801 FILLER_30_177
*802 FILLER_30_189
*803 FILLER_30_195
*804 FILLER_30_197
*805 FILLER_30_209
*806 FILLER_30_221
*807 FILLER_30_233
*808 FILLER_30_24
*809 FILLER_30_245
*810 FILLER_30_251
*811 FILLER_30_253
*812 FILLER_30_265
*813 FILLER_30_277
*814 FILLER_30_289
*815 FILLER_30_297
*816 FILLER_30_3
*817 FILLER_30_33
*818 FILLER_30_45
*819 FILLER_30_57
*820 FILLER_30_69
*821 FILLER_30_81
*822 FILLER_30_85
*823 FILLER_30_9
*824 FILLER_30_97
*825 FILLER_31_105
*826 FILLER_31_111
*827 FILLER_31_113
*828 FILLER_31_125
*829 FILLER_31_137
*830 FILLER_31_149
*831 FILLER_31_161
*832 FILLER_31_167
*833 FILLER_31_169
*834 FILLER_31_17
*835 FILLER_31_181
*836 FILLER_31_193
*837 FILLER_31_205
*838 FILLER_31_217
*839 FILLER_31_223
*840 FILLER_31_225
*841 FILLER_31_23
*842 FILLER_31_237
*843 FILLER_31_249
*844 FILLER_31_261
*845 FILLER_31_273
*846 FILLER_31_279
*847 FILLER_31_281
*848 FILLER_31_293
*849 FILLER_31_3
*850 FILLER_31_31
*851 FILLER_31_43
*852 FILLER_31_55
*853 FILLER_31_57
*854 FILLER_31_69
*855 FILLER_31_81
*856 FILLER_31_9
*857 FILLER_31_93
*858 FILLER_32_109
*859 FILLER_32_11
*860 FILLER_32_121
*861 FILLER_32_133
*862 FILLER_32_139
*863 FILLER_32_141
*864 FILLER_32_153
*865 FILLER_32_165
*866 FILLER_32_17
*867 FILLER_32_177
*868 FILLER_32_189
*869 FILLER_32_195
*870 FILLER_32_197
*871 FILLER_32_209
*872 FILLER_32_21
*873 FILLER_32_221
*874 FILLER_32_233
*875 FILLER_32_245
*876 FILLER_32_251
*877 FILLER_32_253
*878 FILLER_32_265
*879 FILLER_32_27
*880 FILLER_32_277
*881 FILLER_32_289
*882 FILLER_32_29
*883 FILLER_32_297
*884 FILLER_32_41
*885 FILLER_32_53
*886 FILLER_32_65
*887 FILLER_32_77
*888 FILLER_32_83
*889 FILLER_32_85
*890 FILLER_32_97
*891 FILLER_33_105
*892 FILLER_33_111
*893 FILLER_33_113
*894 FILLER_33_125
*895 FILLER_33_137
*896 FILLER_33_149
*897 FILLER_33_15
*898 FILLER_33_161
*899 FILLER_33_167
*900 FILLER_33_169
*901 FILLER_33_181
*902 FILLER_33_19
*903 FILLER_33_193
*904 FILLER_33_205
*905 FILLER_33_217
*906 FILLER_33_223
*907 FILLER_33_225
*908 FILLER_33_237
*909 FILLER_33_249
*910 FILLER_33_26
*911 FILLER_33_261
*912 FILLER_33_273
*913 FILLER_33_279
*914 FILLER_33_281
*915 FILLER_33_293
*916 FILLER_33_3
*917 FILLER_33_32
*918 FILLER_33_40
*919 FILLER_33_52
*920 FILLER_33_57
*921 FILLER_33_69
*922 FILLER_33_81
*923 FILLER_33_93
*924 FILLER_34_109
*925 FILLER_34_121
*926 FILLER_34_133
*927 FILLER_34_139
*928 FILLER_34_141
*929 FILLER_34_153
*930 FILLER_34_165
*931 FILLER_34_177
*932 FILLER_34_189
*933 FILLER_34_195
*934 FILLER_34_197
*935 FILLER_34_209
*936 FILLER_34_221
*937 FILLER_34_23
*938 FILLER_34_233
*939 FILLER_34_245
*940 FILLER_34_251
*941 FILLER_34_253
*942 FILLER_34_265
*943 FILLER_34_27
*944 FILLER_34_277
*945 FILLER_34_289
*946 FILLER_34_297
*947 FILLER_34_3
*948 FILLER_34_39
*949 FILLER_34_51
*950 FILLER_34_63
*951 FILLER_34_75
*952 FILLER_34_83
*953 FILLER_34_85
*954 FILLER_34_97
*955 FILLER_35_105
*956 FILLER_35_11
*957 FILLER_35_111
*958 FILLER_35_113
*959 FILLER_35_125
*960 FILLER_35_137
*961 FILLER_35_149
*962 FILLER_35_161
*963 FILLER_35_167
*964 FILLER_35_169
*965 FILLER_35_181
*966 FILLER_35_193
*967 FILLER_35_205
*968 FILLER_35_217
*969 FILLER_35_22
*970 FILLER_35_223
*971 FILLER_35_225
*972 FILLER_35_237
*973 FILLER_35_249
*974 FILLER_35_261
*975 FILLER_35_273
*976 FILLER_35_279
*977 FILLER_35_281
*978 FILLER_35_293
*979 FILLER_35_34
*980 FILLER_35_46
*981 FILLER_35_54
*982 FILLER_35_57
*983 FILLER_35_69
*984 FILLER_35_81
*985 FILLER_35_93
*986 FILLER_36_109
*987 FILLER_36_121
*988 FILLER_36_133
*989 FILLER_36_139
*990 FILLER_36_141
*991 FILLER_36_153
*992 FILLER_36_165
*993 FILLER_36_17
*994 FILLER_36_177
*995 FILLER_36_189
*996 FILLER_36_195
*997 FILLER_36_197
*998 FILLER_36_209
*999 FILLER_36_221
*1000 FILLER_36_233
*1001 FILLER_36_245
*1002 FILLER_36_25
*1003 FILLER_36_251
*1004 FILLER_36_253
*1005 FILLER_36_265
*1006 FILLER_36_277
*1007 FILLER_36_289
*1008 FILLER_36_29
*1009 FILLER_36_297
*1010 FILLER_36_3
*1011 FILLER_36_41
*1012 FILLER_36_53
*1013 FILLER_36_65
*1014 FILLER_36_77
*1015 FILLER_36_83
*1016 FILLER_36_85
*1017 FILLER_36_9
*1018 FILLER_36_97
*1019 FILLER_37_105
*1020 FILLER_37_11
*1021 FILLER_37_111
*1022 FILLER_37_113
*1023 FILLER_37_125
*1024 FILLER_37_137
*1025 FILLER_37_149
*1026 FILLER_37_161
*1027 FILLER_37_167
*1028 FILLER_37_169
*1029 FILLER_37_18
*1030 FILLER_37_181
*1031 FILLER_37_193
*1032 FILLER_37_205
*1033 FILLER_37_217
*1034 FILLER_37_223
*1035 FILLER_37_225
*1036 FILLER_37_237
*1037 FILLER_37_249
*1038 FILLER_37_261
*1039 FILLER_37_27
*1040 FILLER_37_273
*1041 FILLER_37_279
*1042 FILLER_37_281
*1043 FILLER_37_293
*1044 FILLER_37_3
*1045 FILLER_37_39
*1046 FILLER_37_51
*1047 FILLER_37_55
*1048 FILLER_37_57
*1049 FILLER_37_69
*1050 FILLER_37_81
*1051 FILLER_37_93
*1052 FILLER_38_109
*1053 FILLER_38_11
*1054 FILLER_38_121
*1055 FILLER_38_133
*1056 FILLER_38_139
*1057 FILLER_38_141
*1058 FILLER_38_153
*1059 FILLER_38_165
*1060 FILLER_38_177
*1061 FILLER_38_189
*1062 FILLER_38_195
*1063 FILLER_38_197
*1064 FILLER_38_209
*1065 FILLER_38_21
*1066 FILLER_38_221
*1067 FILLER_38_233
*1068 FILLER_38_245
*1069 FILLER_38_251
*1070 FILLER_38_253
*1071 FILLER_38_265
*1072 FILLER_38_27
*1073 FILLER_38_277
*1074 FILLER_38_289
*1075 FILLER_38_29
*1076 FILLER_38_297
*1077 FILLER_38_3
*1078 FILLER_38_41
*1079 FILLER_38_53
*1080 FILLER_38_65
*1081 FILLER_38_77
*1082 FILLER_38_83
*1083 FILLER_38_85
*1084 FILLER_38_97
*1085 FILLER_39_105
*1086 FILLER_39_111
*1087 FILLER_39_113
*1088 FILLER_39_125
*1089 FILLER_39_137
*1090 FILLER_39_149
*1091 FILLER_39_15
*1092 FILLER_39_161
*1093 FILLER_39_167
*1094 FILLER_39_169
*1095 FILLER_39_181
*1096 FILLER_39_193
*1097 FILLER_39_205
*1098 FILLER_39_217
*1099 FILLER_39_223
*1100 FILLER_39_225
*1101 FILLER_39_237
*1102 FILLER_39_249
*1103 FILLER_39_261
*1104 FILLER_39_27
*1105 FILLER_39_273
*1106 FILLER_39_279
*1107 FILLER_39_281
*1108 FILLER_39_293
*1109 FILLER_39_3
*1110 FILLER_39_39
*1111 FILLER_39_51
*1112 FILLER_39_55
*1113 FILLER_39_57
*1114 FILLER_39_69
*1115 FILLER_39_81
*1116 FILLER_39_93
*1117 FILLER_3_105
*1118 FILLER_3_111
*1119 FILLER_3_113
*1120 FILLER_3_125
*1121 FILLER_3_137
*1122 FILLER_3_149
*1123 FILLER_3_15
*1124 FILLER_3_161
*1125 FILLER_3_167
*1126 FILLER_3_169
*1127 FILLER_3_181
*1128 FILLER_3_193
*1129 FILLER_3_205
*1130 FILLER_3_217
*1131 FILLER_3_223
*1132 FILLER_3_225
*1133 FILLER_3_237
*1134 FILLER_3_249
*1135 FILLER_3_261
*1136 FILLER_3_273
*1137 FILLER_3_279
*1138 FILLER_3_281
*1139 FILLER_3_293
*1140 FILLER_3_3
*1141 FILLER_3_41
*1142 FILLER_3_53
*1143 FILLER_3_57
*1144 FILLER_3_69
*1145 FILLER_3_81
*1146 FILLER_3_93
*1147 FILLER_40_109
*1148 FILLER_40_121
*1149 FILLER_40_133
*1150 FILLER_40_139
*1151 FILLER_40_141
*1152 FILLER_40_15
*1153 FILLER_40_153
*1154 FILLER_40_165
*1155 FILLER_40_177
*1156 FILLER_40_189
*1157 FILLER_40_195
*1158 FILLER_40_197
*1159 FILLER_40_209
*1160 FILLER_40_221
*1161 FILLER_40_233
*1162 FILLER_40_245
*1163 FILLER_40_251
*1164 FILLER_40_253
*1165 FILLER_40_265
*1166 FILLER_40_27
*1167 FILLER_40_277
*1168 FILLER_40_289
*1169 FILLER_40_29
*1170 FILLER_40_297
*1171 FILLER_40_3
*1172 FILLER_40_41
*1173 FILLER_40_53
*1174 FILLER_40_65
*1175 FILLER_40_77
*1176 FILLER_40_83
*1177 FILLER_40_85
*1178 FILLER_40_97
*1179 FILLER_41_105
*1180 FILLER_41_111
*1181 FILLER_41_113
*1182 FILLER_41_125
*1183 FILLER_41_137
*1184 FILLER_41_149
*1185 FILLER_41_15
*1186 FILLER_41_161
*1187 FILLER_41_167
*1188 FILLER_41_169
*1189 FILLER_41_181
*1190 FILLER_41_193
*1191 FILLER_41_205
*1192 FILLER_41_217
*1193 FILLER_41_223
*1194 FILLER_41_225
*1195 FILLER_41_237
*1196 FILLER_41_249
*1197 FILLER_41_261
*1198 FILLER_41_27
*1199 FILLER_41_273
*1200 FILLER_41_279
*1201 FILLER_41_281
*1202 FILLER_41_293
*1203 FILLER_41_3
*1204 FILLER_41_39
*1205 FILLER_41_51
*1206 FILLER_41_55
*1207 FILLER_41_57
*1208 FILLER_41_69
*1209 FILLER_41_81
*1210 FILLER_41_93
*1211 FILLER_42_109
*1212 FILLER_42_11
*1213 FILLER_42_121
*1214 FILLER_42_133
*1215 FILLER_42_139
*1216 FILLER_42_141
*1217 FILLER_42_153
*1218 FILLER_42_165
*1219 FILLER_42_177
*1220 FILLER_42_189
*1221 FILLER_42_195
*1222 FILLER_42_197
*1223 FILLER_42_209
*1224 FILLER_42_221
*1225 FILLER_42_23
*1226 FILLER_42_233
*1227 FILLER_42_245
*1228 FILLER_42_251
*1229 FILLER_42_253
*1230 FILLER_42_265
*1231 FILLER_42_27
*1232 FILLER_42_277
*1233 FILLER_42_289
*1234 FILLER_42_29
*1235 FILLER_42_297
*1236 FILLER_42_3
*1237 FILLER_42_41
*1238 FILLER_42_53
*1239 FILLER_42_65
*1240 FILLER_42_77
*1241 FILLER_42_83
*1242 FILLER_42_85
*1243 FILLER_42_97
*1244 FILLER_43_105
*1245 FILLER_43_111
*1246 FILLER_43_113
*1247 FILLER_43_12
*1248 FILLER_43_125
*1249 FILLER_43_137
*1250 FILLER_43_149
*1251 FILLER_43_161
*1252 FILLER_43_167
*1253 FILLER_43_169
*1254 FILLER_43_181
*1255 FILLER_43_193
*1256 FILLER_43_205
*1257 FILLER_43_217
*1258 FILLER_43_223
*1259 FILLER_43_225
*1260 FILLER_43_237
*1261 FILLER_43_24
*1262 FILLER_43_249
*1263 FILLER_43_261
*1264 FILLER_43_273
*1265 FILLER_43_279
*1266 FILLER_43_281
*1267 FILLER_43_293
*1268 FILLER_43_3
*1269 FILLER_43_36
*1270 FILLER_43_48
*1271 FILLER_43_57
*1272 FILLER_43_69
*1273 FILLER_43_7
*1274 FILLER_43_81
*1275 FILLER_43_93
*1276 FILLER_44_109
*1277 FILLER_44_121
*1278 FILLER_44_133
*1279 FILLER_44_139
*1280 FILLER_44_141
*1281 FILLER_44_15
*1282 FILLER_44_153
*1283 FILLER_44_165
*1284 FILLER_44_177
*1285 FILLER_44_189
*1286 FILLER_44_195
*1287 FILLER_44_197
*1288 FILLER_44_209
*1289 FILLER_44_221
*1290 FILLER_44_233
*1291 FILLER_44_245
*1292 FILLER_44_251
*1293 FILLER_44_253
*1294 FILLER_44_265
*1295 FILLER_44_27
*1296 FILLER_44_277
*1297 FILLER_44_289
*1298 FILLER_44_29
*1299 FILLER_44_297
*1300 FILLER_44_3
*1301 FILLER_44_41
*1302 FILLER_44_53
*1303 FILLER_44_65
*1304 FILLER_44_77
*1305 FILLER_44_83
*1306 FILLER_44_85
*1307 FILLER_44_97
*1308 FILLER_45_105
*1309 FILLER_45_11
*1310 FILLER_45_111
*1311 FILLER_45_113
*1312 FILLER_45_125
*1313 FILLER_45_137
*1314 FILLER_45_149
*1315 FILLER_45_16
*1316 FILLER_45_161
*1317 FILLER_45_167
*1318 FILLER_45_169
*1319 FILLER_45_181
*1320 FILLER_45_193
*1321 FILLER_45_205
*1322 FILLER_45_217
*1323 FILLER_45_223
*1324 FILLER_45_225
*1325 FILLER_45_237
*1326 FILLER_45_249
*1327 FILLER_45_261
*1328 FILLER_45_273
*1329 FILLER_45_279
*1330 FILLER_45_28
*1331 FILLER_45_281
*1332 FILLER_45_293
*1333 FILLER_45_3
*1334 FILLER_45_40
*1335 FILLER_45_52
*1336 FILLER_45_57
*1337 FILLER_45_69
*1338 FILLER_45_81
*1339 FILLER_45_93
*1340 FILLER_46_109
*1341 FILLER_46_121
*1342 FILLER_46_133
*1343 FILLER_46_139
*1344 FILLER_46_141
*1345 FILLER_46_15
*1346 FILLER_46_153
*1347 FILLER_46_165
*1348 FILLER_46_177
*1349 FILLER_46_189
*1350 FILLER_46_195
*1351 FILLER_46_197
*1352 FILLER_46_209
*1353 FILLER_46_221
*1354 FILLER_46_233
*1355 FILLER_46_245
*1356 FILLER_46_251
*1357 FILLER_46_253
*1358 FILLER_46_265
*1359 FILLER_46_27
*1360 FILLER_46_277
*1361 FILLER_46_289
*1362 FILLER_46_29
*1363 FILLER_46_297
*1364 FILLER_46_3
*1365 FILLER_46_41
*1366 FILLER_46_53
*1367 FILLER_46_65
*1368 FILLER_46_77
*1369 FILLER_46_83
*1370 FILLER_46_85
*1371 FILLER_46_97
*1372 FILLER_47_105
*1373 FILLER_47_111
*1374 FILLER_47_113
*1375 FILLER_47_125
*1376 FILLER_47_137
*1377 FILLER_47_149
*1378 FILLER_47_15
*1379 FILLER_47_161
*1380 FILLER_47_167
*1381 FILLER_47_169
*1382 FILLER_47_181
*1383 FILLER_47_193
*1384 FILLER_47_205
*1385 FILLER_47_217
*1386 FILLER_47_223
*1387 FILLER_47_225
*1388 FILLER_47_237
*1389 FILLER_47_249
*1390 FILLER_47_261
*1391 FILLER_47_27
*1392 FILLER_47_273
*1393 FILLER_47_279
*1394 FILLER_47_281
*1395 FILLER_47_293
*1396 FILLER_47_3
*1397 FILLER_47_39
*1398 FILLER_47_51
*1399 FILLER_47_55
*1400 FILLER_47_57
*1401 FILLER_47_69
*1402 FILLER_47_81
*1403 FILLER_47_93
*1404 FILLER_48_109
*1405 FILLER_48_121
*1406 FILLER_48_133
*1407 FILLER_48_139
*1408 FILLER_48_141
*1409 FILLER_48_15
*1410 FILLER_48_153
*1411 FILLER_48_165
*1412 FILLER_48_177
*1413 FILLER_48_189
*1414 FILLER_48_195
*1415 FILLER_48_197
*1416 FILLER_48_209
*1417 FILLER_48_221
*1418 FILLER_48_233
*1419 FILLER_48_245
*1420 FILLER_48_251
*1421 FILLER_48_253
*1422 FILLER_48_265
*1423 FILLER_48_27
*1424 FILLER_48_277
*1425 FILLER_48_289
*1426 FILLER_48_29
*1427 FILLER_48_297
*1428 FILLER_48_3
*1429 FILLER_48_41
*1430 FILLER_48_53
*1431 FILLER_48_65
*1432 FILLER_48_77
*1433 FILLER_48_83
*1434 FILLER_48_85
*1435 FILLER_48_97
*1436 FILLER_49_105
*1437 FILLER_49_111
*1438 FILLER_49_113
*1439 FILLER_49_125
*1440 FILLER_49_137
*1441 FILLER_49_149
*1442 FILLER_49_15
*1443 FILLER_49_161
*1444 FILLER_49_167
*1445 FILLER_49_169
*1446 FILLER_49_181
*1447 FILLER_49_193
*1448 FILLER_49_205
*1449 FILLER_49_217
*1450 FILLER_49_223
*1451 FILLER_49_225
*1452 FILLER_49_237
*1453 FILLER_49_249
*1454 FILLER_49_261
*1455 FILLER_49_27
*1456 FILLER_49_273
*1457 FILLER_49_279
*1458 FILLER_49_281
*1459 FILLER_49_293
*1460 FILLER_49_3
*1461 FILLER_49_39
*1462 FILLER_49_51
*1463 FILLER_49_55
*1464 FILLER_49_57
*1465 FILLER_49_69
*1466 FILLER_49_81
*1467 FILLER_49_93
*1468 FILLER_4_109
*1469 FILLER_4_121
*1470 FILLER_4_133
*1471 FILLER_4_139
*1472 FILLER_4_141
*1473 FILLER_4_153
*1474 FILLER_4_165
*1475 FILLER_4_177
*1476 FILLER_4_189
*1477 FILLER_4_195
*1478 FILLER_4_197
*1479 FILLER_4_209
*1480 FILLER_4_221
*1481 FILLER_4_23
*1482 FILLER_4_233
*1483 FILLER_4_245
*1484 FILLER_4_251
*1485 FILLER_4_253
*1486 FILLER_4_265
*1487 FILLER_4_27
*1488 FILLER_4_277
*1489 FILLER_4_289
*1490 FILLER_4_29
*1491 FILLER_4_297
*1492 FILLER_4_3
*1493 FILLER_4_41
*1494 FILLER_4_53
*1495 FILLER_4_65
*1496 FILLER_4_77
*1497 FILLER_4_83
*1498 FILLER_4_85
*1499 FILLER_4_97
*1500 FILLER_50_109
*1501 FILLER_50_121
*1502 FILLER_50_133
*1503 FILLER_50_139
*1504 FILLER_50_141
*1505 FILLER_50_15
*1506 FILLER_50_153
*1507 FILLER_50_165
*1508 FILLER_50_177
*1509 FILLER_50_189
*1510 FILLER_50_195
*1511 FILLER_50_197
*1512 FILLER_50_209
*1513 FILLER_50_221
*1514 FILLER_50_233
*1515 FILLER_50_245
*1516 FILLER_50_251
*1517 FILLER_50_253
*1518 FILLER_50_265
*1519 FILLER_50_27
*1520 FILLER_50_277
*1521 FILLER_50_289
*1522 FILLER_50_29
*1523 FILLER_50_297
*1524 FILLER_50_3
*1525 FILLER_50_41
*1526 FILLER_50_53
*1527 FILLER_50_65
*1528 FILLER_50_77
*1529 FILLER_50_83
*1530 FILLER_50_85
*1531 FILLER_50_97
*1532 FILLER_51_105
*1533 FILLER_51_111
*1534 FILLER_51_113
*1535 FILLER_51_125
*1536 FILLER_51_137
*1537 FILLER_51_149
*1538 FILLER_51_15
*1539 FILLER_51_161
*1540 FILLER_51_167
*1541 FILLER_51_169
*1542 FILLER_51_181
*1543 FILLER_51_193
*1544 FILLER_51_205
*1545 FILLER_51_217
*1546 FILLER_51_223
*1547 FILLER_51_225
*1548 FILLER_51_237
*1549 FILLER_51_249
*1550 FILLER_51_261
*1551 FILLER_51_27
*1552 FILLER_51_273
*1553 FILLER_51_279
*1554 FILLER_51_281
*1555 FILLER_51_293
*1556 FILLER_51_3
*1557 FILLER_51_39
*1558 FILLER_51_51
*1559 FILLER_51_55
*1560 FILLER_51_57
*1561 FILLER_51_69
*1562 FILLER_51_81
*1563 FILLER_51_93
*1564 FILLER_52_109
*1565 FILLER_52_121
*1566 FILLER_52_133
*1567 FILLER_52_139
*1568 FILLER_52_141
*1569 FILLER_52_15
*1570 FILLER_52_153
*1571 FILLER_52_165
*1572 FILLER_52_177
*1573 FILLER_52_189
*1574 FILLER_52_195
*1575 FILLER_52_197
*1576 FILLER_52_209
*1577 FILLER_52_221
*1578 FILLER_52_233
*1579 FILLER_52_245
*1580 FILLER_52_251
*1581 FILLER_52_253
*1582 FILLER_52_265
*1583 FILLER_52_27
*1584 FILLER_52_277
*1585 FILLER_52_289
*1586 FILLER_52_29
*1587 FILLER_52_297
*1588 FILLER_52_3
*1589 FILLER_52_41