*SPEF "ieee 1481-1999"
*DESIGN "user_module_340805072482992722"
*DATE "11:11:11 Fri 11 11, 1111"
*VENDOR "OpenRCX"
*PROGRAM "Parallel Extraction"
*VERSION "1.0"
*DESIGN_FLOW "NAME_SCOPE LOCAL" "PIN_CAP NONE"
*DIVIDER /
*DELIMITER :
*BUS_DELIMITER []
*T_UNIT 1 NS
*C_UNIT 1 PF
*R_UNIT 1 OHM
*L_UNIT 1 HENRY

*NAME_MAP
*1 io_in[0]
*2 io_in[1]
*3 io_in[2]
*4 io_in[3]
*5 io_in[4]
*6 io_in[5]
*7 io_in[6]
*8 io_in[7]
*9 io_out[0]
*10 io_out[1]
*11 io_out[2]
*12 io_out[3]
*13 io_out[4]
*14 io_out[5]
*15 io_out[6]
*16 net2
*19 _00_
*20 _01_
*21 _02_
*22 _03_
*23 _04_
*24 _05_
*25 _06_
*26 _07_
*27 _08_
*28 _09_
*29 _10_
*30 _11_
*31 _12_
*32 _13_
*33 _14_
*34 _15_
*35 clknet_0_io_in[0]
*36 clknet_1_0__leaf_io_in[0]
*37 clknet_1_1__leaf_io_in[0]
*38 flipflop1\.d
*39 flipflop1\.q
*40 flipflop2\.clk
*41 flipflop2\.d
*42 flipflop2\.q
*43 flipflop3\.clk
*44 flipflop3\.d
*45 flipflop3\.q
*46 flipflop5\.clk
*47 flipflop5\.d
*48 flipflop5\.q
*49 flipflop6\.d
*50 flipflop6\.q
*51 gate27\.out
*52 gate30\.out
*53 gate32\.out
*54 gate36\.out
*55 gate42\.out
*56 gate46\.out
*57 gate52\.out
*58 net1
*59 FILLER_0_109
*60 FILLER_0_113
*61 FILLER_0_125
*62 FILLER_0_137
*63 FILLER_0_141
*64 FILLER_0_15
*65 FILLER_0_153
*66 FILLER_0_165
*67 FILLER_0_169
*68 FILLER_0_181
*69 FILLER_0_193
*70 FILLER_0_197
*71 FILLER_0_209
*72 FILLER_0_221
*73 FILLER_0_225
*74 FILLER_0_237
*75 FILLER_0_249
*76 FILLER_0_253
*77 FILLER_0_265
*78 FILLER_0_27
*79 FILLER_0_277
*80 FILLER_0_281
*81 FILLER_0_29
*82 FILLER_0_293
*83 FILLER_0_3
*84 FILLER_0_41
*85 FILLER_0_53
*86 FILLER_0_57
*87 FILLER_0_69
*88 FILLER_0_81
*89 FILLER_0_85
*90 FILLER_0_97
*91 FILLER_10_109
*92 FILLER_10_121
*93 FILLER_10_133
*94 FILLER_10_139
*95 FILLER_10_141
*96 FILLER_10_15
*97 FILLER_10_153
*98 FILLER_10_165
*99 FILLER_10_177
*100 FILLER_10_189
*101 FILLER_10_195
*102 FILLER_10_197
*103 FILLER_10_209
*104 FILLER_10_221
*105 FILLER_10_233
*106 FILLER_10_245
*107 FILLER_10_251
*108 FILLER_10_253
*109 FILLER_10_265
*110 FILLER_10_27
*111 FILLER_10_277
*112 FILLER_10_289
*113 FILLER_10_29
*114 FILLER_10_297
*115 FILLER_10_3
*116 FILLER_10_41
*117 FILLER_10_53
*118 FILLER_10_65
*119 FILLER_10_77
*120 FILLER_10_83
*121 FILLER_10_85
*122 FILLER_10_97
*123 FILLER_11_105
*124 FILLER_11_111
*125 FILLER_11_113
*126 FILLER_11_125
*127 FILLER_11_137
*128 FILLER_11_149
*129 FILLER_11_15
*130 FILLER_11_161
*131 FILLER_11_167
*132 FILLER_11_169
*133 FILLER_11_181
*134 FILLER_11_193
*135 FILLER_11_205
*136 FILLER_11_217
*137 FILLER_11_223
*138 FILLER_11_225
*139 FILLER_11_237
*140 FILLER_11_249
*141 FILLER_11_261
*142 FILLER_11_27
*143 FILLER_11_273
*144 FILLER_11_279
*145 FILLER_11_281
*146 FILLER_11_293
*147 FILLER_11_3
*148 FILLER_11_39
*149 FILLER_11_51
*150 FILLER_11_55
*151 FILLER_11_57
*152 FILLER_11_69
*153 FILLER_11_81
*154 FILLER_11_93
*155 FILLER_12_109
*156 FILLER_12_121
*157 FILLER_12_133
*158 FILLER_12_139
*159 FILLER_12_141
*160 FILLER_12_15
*161 FILLER_12_153
*162 FILLER_12_165
*163 FILLER_12_177
*164 FILLER_12_189
*165 FILLER_12_195
*166 FILLER_12_197
*167 FILLER_12_209
*168 FILLER_12_221
*169 FILLER_12_233
*170 FILLER_12_245
*171 FILLER_12_251
*172 FILLER_12_253
*173 FILLER_12_265
*174 FILLER_12_27
*175 FILLER_12_277
*176 FILLER_12_289
*177 FILLER_12_29
*178 FILLER_12_297
*179 FILLER_12_3
*180 FILLER_12_41
*181 FILLER_12_53
*182 FILLER_12_65
*183 FILLER_12_77
*184 FILLER_12_83
*185 FILLER_12_85
*186 FILLER_12_97
*187 FILLER_13_105
*188 FILLER_13_111
*189 FILLER_13_113
*190 FILLER_13_125
*191 FILLER_13_137
*192 FILLER_13_149
*193 FILLER_13_15
*194 FILLER_13_161
*195 FILLER_13_167
*196 FILLER_13_169
*197 FILLER_13_181
*198 FILLER_13_193
*199 FILLER_13_205
*200 FILLER_13_217
*201 FILLER_13_223
*202 FILLER_13_225
*203 FILLER_13_237
*204 FILLER_13_249
*205 FILLER_13_261
*206 FILLER_13_27
*207 FILLER_13_273
*208 FILLER_13_279
*209 FILLER_13_281
*210 FILLER_13_293
*211 FILLER_13_3
*212 FILLER_13_39
*213 FILLER_13_51
*214 FILLER_13_55
*215 FILLER_13_57
*216 FILLER_13_69
*217 FILLER_13_81
*218 FILLER_13_93
*219 FILLER_14_109
*220 FILLER_14_121
*221 FILLER_14_133
*222 FILLER_14_139
*223 FILLER_14_141
*224 FILLER_14_15
*225 FILLER_14_153
*226 FILLER_14_165
*227 FILLER_14_177
*228 FILLER_14_189
*229 FILLER_14_195
*230 FILLER_14_197
*231 FILLER_14_209
*232 FILLER_14_221
*233 FILLER_14_233
*234 FILLER_14_245
*235 FILLER_14_251
*236 FILLER_14_253
*237 FILLER_14_265
*238 FILLER_14_27
*239 FILLER_14_277
*240 FILLER_14_289
*241 FILLER_14_29
*242 FILLER_14_297
*243 FILLER_14_3
*244 FILLER_14_41
*245 FILLER_14_53
*246 FILLER_14_65
*247 FILLER_14_77
*248 FILLER_14_83
*249 FILLER_14_85
*250 FILLER_14_97
*251 FILLER_15_105
*252 FILLER_15_111
*253 FILLER_15_113
*254 FILLER_15_125
*255 FILLER_15_137
*256 FILLER_15_149
*257 FILLER_15_15
*258 FILLER_15_161
*259 FILLER_15_167
*260 FILLER_15_169
*261 FILLER_15_181
*262 FILLER_15_193
*263 FILLER_15_205
*264 FILLER_15_217
*265 FILLER_15_223
*266 FILLER_15_225
*267 FILLER_15_237
*268 FILLER_15_249
*269 FILLER_15_261
*270 FILLER_15_27
*271 FILLER_15_273
*272 FILLER_15_279
*273 FILLER_15_281
*274 FILLER_15_293
*275 FILLER_15_3
*276 FILLER_15_39
*277 FILLER_15_51
*278 FILLER_15_55
*279 FILLER_15_57
*280 FILLER_15_69
*281 FILLER_15_81
*282 FILLER_15_93
*283 FILLER_16_109
*284 FILLER_16_121
*285 FILLER_16_133
*286 FILLER_16_139
*287 FILLER_16_141
*288 FILLER_16_15
*289 FILLER_16_153
*290 FILLER_16_165
*291 FILLER_16_177
*292 FILLER_16_189
*293 FILLER_16_195
*294 FILLER_16_197
*295 FILLER_16_209
*296 FILLER_16_221
*297 FILLER_16_233
*298 FILLER_16_245
*299 FILLER_16_251
*300 FILLER_16_253
*301 FILLER_16_265
*302 FILLER_16_27
*303 FILLER_16_277
*304 FILLER_16_289
*305 FILLER_16_29
*306 FILLER_16_297
*307 FILLER_16_3
*308 FILLER_16_41
*309 FILLER_16_53
*310 FILLER_16_65
*311 FILLER_16_77
*312 FILLER_16_83
*313 FILLER_16_85
*314 FILLER_16_97
*315 FILLER_17_105
*316 FILLER_17_111
*317 FILLER_17_113
*318 FILLER_17_125
*319 FILLER_17_137
*320 FILLER_17_149
*321 FILLER_17_15
*322 FILLER_17_161
*323 FILLER_17_167
*324 FILLER_17_169
*325 FILLER_17_181
*326 FILLER_17_193
*327 FILLER_17_205
*328 FILLER_17_217
*329 FILLER_17_223
*330 FILLER_17_225
*331 FILLER_17_237
*332 FILLER_17_249
*333 FILLER_17_261
*334 FILLER_17_27
*335 FILLER_17_273
*336 FILLER_17_279
*337 FILLER_17_281
*338 FILLER_17_293
*339 FILLER_17_3
*340 FILLER_17_39
*341 FILLER_17_51
*342 FILLER_17_55
*343 FILLER_17_57
*344 FILLER_17_69
*345 FILLER_17_81
*346 FILLER_17_93
*347 FILLER_18_109
*348 FILLER_18_121
*349 FILLER_18_133
*350 FILLER_18_139
*351 FILLER_18_141
*352 FILLER_18_15
*353 FILLER_18_153
*354 FILLER_18_165
*355 FILLER_18_177
*356 FILLER_18_189
*357 FILLER_18_195
*358 FILLER_18_197
*359 FILLER_18_209
*360 FILLER_18_221
*361 FILLER_18_233
*362 FILLER_18_245
*363 FILLER_18_251
*364 FILLER_18_253
*365 FILLER_18_265
*366 FILLER_18_27
*367 FILLER_18_277
*368 FILLER_18_289
*369 FILLER_18_29
*370 FILLER_18_297
*371 FILLER_18_3
*372 FILLER_18_41
*373 FILLER_18_53
*374 FILLER_18_65
*375 FILLER_18_77
*376 FILLER_18_83
*377 FILLER_18_85
*378 FILLER_18_97
*379 FILLER_19_105
*380 FILLER_19_111
*381 FILLER_19_113
*382 FILLER_19_125
*383 FILLER_19_137
*384 FILLER_19_149
*385 FILLER_19_15
*386 FILLER_19_161
*387 FILLER_19_167
*388 FILLER_19_169
*389 FILLER_19_181
*390 FILLER_19_193
*391 FILLER_19_205
*392 FILLER_19_217
*393 FILLER_19_223
*394 FILLER_19_225
*395 FILLER_19_237
*396 FILLER_19_249
*397 FILLER_19_261
*398 FILLER_19_27
*399 FILLER_19_273
*400 FILLER_19_279
*401 FILLER_19_281
*402 FILLER_19_293
*403 FILLER_19_3
*404 FILLER_19_39
*405 FILLER_19_51
*406 FILLER_19_55
*407 FILLER_19_57
*408 FILLER_19_69
*409 FILLER_19_81
*410 FILLER_19_93
*411 FILLER_1_105
*412 FILLER_1_111
*413 FILLER_1_113
*414 FILLER_1_125
*415 FILLER_1_137
*416 FILLER_1_149
*417 FILLER_1_15
*418 FILLER_1_161
*419 FILLER_1_167
*420 FILLER_1_169
*421 FILLER_1_181
*422 FILLER_1_193
*423 FILLER_1_205
*424 FILLER_1_217
*425 FILLER_1_223
*426 FILLER_1_225
*427 FILLER_1_237
*428 FILLER_1_249
*429 FILLER_1_261
*430 FILLER_1_27
*431 FILLER_1_273
*432 FILLER_1_279
*433 FILLER_1_281
*434 FILLER_1_293
*435 FILLER_1_3
*436 FILLER_1_39
*437 FILLER_1_51
*438 FILLER_1_55
*439 FILLER_1_57
*440 FILLER_1_69
*441 FILLER_1_81
*442 FILLER_1_93
*443 FILLER_20_109
*444 FILLER_20_121
*445 FILLER_20_133
*446 FILLER_20_139
*447 FILLER_20_141
*448 FILLER_20_15
*449 FILLER_20_153
*450 FILLER_20_165
*451 FILLER_20_177
*452 FILLER_20_189
*453 FILLER_20_195
*454 FILLER_20_197
*455 FILLER_20_209
*456 FILLER_20_221
*457 FILLER_20_233
*458 FILLER_20_245
*459 FILLER_20_251
*460 FILLER_20_253
*461 FILLER_20_265
*462 FILLER_20_27
*463 FILLER_20_277
*464 FILLER_20_289
*465 FILLER_20_29
*466 FILLER_20_297
*467 FILLER_20_3
*468 FILLER_20_41
*469 FILLER_20_53
*470 FILLER_20_65
*471 FILLER_20_77
*472 FILLER_20_83
*473 FILLER_20_85
*474 FILLER_20_97
*475 FILLER_21_105
*476 FILLER_21_111
*477 FILLER_21_113
*478 FILLER_21_125
*479 FILLER_21_137
*480 FILLER_21_149
*481 FILLER_21_15
*482 FILLER_21_161
*483 FILLER_21_167
*484 FILLER_21_169
*485 FILLER_21_181
*486 FILLER_21_193
*487 FILLER_21_205
*488 FILLER_21_217
*489 FILLER_21_223
*490 FILLER_21_225
*491 FILLER_21_237
*492 FILLER_21_249
*493 FILLER_21_261
*494 FILLER_21_27
*495 FILLER_21_273
*496 FILLER_21_279
*497 FILLER_21_281
*498 FILLER_21_293
*499 FILLER_21_3
*500 FILLER_21_39
*501 FILLER_21_51
*502 FILLER_21_55
*503 FILLER_21_57
*504 FILLER_21_69
*505 FILLER_21_81
*506 FILLER_21_93
*507 FILLER_22_109
*508 FILLER_22_121
*509 FILLER_22_133
*510 FILLER_22_139
*511 FILLER_22_141
*512 FILLER_22_15
*513 FILLER_22_153
*514 FILLER_22_165
*515 FILLER_22_177
*516 FILLER_22_189
*517 FILLER_22_195
*518 FILLER_22_197
*519 FILLER_22_209
*520 FILLER_22_221
*521 FILLER_22_233
*522 FILLER_22_245
*523 FILLER_22_251
*524 FILLER_22_253
*525 FILLER_22_265
*526 FILLER_22_27
*527 FILLER_22_277
*528 FILLER_22_289
*529 FILLER_22_29
*530 FILLER_22_297
*531 FILLER_22_3
*532 FILLER_22_41
*533 FILLER_22_53
*534 FILLER_22_65
*535 FILLER_22_77
*536 FILLER_22_83
*537 FILLER_22_85
*538 FILLER_22_97
*539 FILLER_23_105
*540 FILLER_23_111
*541 FILLER_23_113
*542 FILLER_23_125
*543 FILLER_23_137
*544 FILLER_23_149
*545 FILLER_23_15
*546 FILLER_23_161
*547 FILLER_23_167
*548 FILLER_23_169
*549 FILLER_23_181
*550 FILLER_23_193
*551 FILLER_23_205
*552 FILLER_23_217
*553 FILLER_23_223
*554 FILLER_23_225
*555 FILLER_23_237
*556 FILLER_23_249
*557 FILLER_23_261
*558 FILLER_23_27
*559 FILLER_23_273
*560 FILLER_23_279
*561 FILLER_23_281
*562 FILLER_23_293
*563 FILLER_23_3
*564 FILLER_23_39
*565 FILLER_23_51
*566 FILLER_23_55
*567 FILLER_23_57
*568 FILLER_23_69
*569 FILLER_23_81
*570 FILLER_23_93
*571 FILLER_24_109
*572 FILLER_24_121
*573 FILLER_24_133
*574 FILLER_24_139
*575 FILLER_24_141
*576 FILLER_24_15
*577 FILLER_24_153
*578 FILLER_24_165
*579 FILLER_24_177
*580 FILLER_24_189
*581 FILLER_24_195
*582 FILLER_24_197
*583 FILLER_24_209
*584 FILLER_24_221
*585 FILLER_24_233
*586 FILLER_24_245
*587 FILLER_24_251
*588 FILLER_24_253
*589 FILLER_24_265
*590 FILLER_24_27
*591 FILLER_24_277
*592 FILLER_24_289
*593 FILLER_24_29
*594 FILLER_24_297
*595 FILLER_24_3
*596 FILLER_24_41
*597 FILLER_24_53
*598 FILLER_24_65
*599 FILLER_24_77
*600 FILLER_24_83
*601 FILLER_24_85
*602 FILLER_24_97
*603 FILLER_25_105
*604 FILLER_25_111
*605 FILLER_25_113
*606 FILLER_25_125
*607 FILLER_25_137
*608 FILLER_25_149
*609 FILLER_25_15
*610 FILLER_25_161
*611 FILLER_25_167
*612 FILLER_25_169
*613 FILLER_25_181
*614 FILLER_25_193
*615 FILLER_25_205
*616 FILLER_25_217
*617 FILLER_25_223
*618 FILLER_25_225
*619 FILLER_25_237
*620 FILLER_25_249
*621 FILLER_25_261
*622 FILLER_25_27
*623 FILLER_25_273
*624 FILLER_25_279
*625 FILLER_25_281
*626 FILLER_25_293
*627 FILLER_25_3
*628 FILLER_25_39
*629 FILLER_25_51
*630 FILLER_25_55
*631 FILLER_25_57
*632 FILLER_25_69
*633 FILLER_25_81
*634 FILLER_25_93
*635 FILLER_26_109
*636 FILLER_26_121
*637 FILLER_26_133
*638 FILLER_26_139
*639 FILLER_26_141
*640 FILLER_26_15
*641 FILLER_26_153
*642 FILLER_26_165
*643 FILLER_26_177
*644 FILLER_26_189
*645 FILLER_26_195
*646 FILLER_26_197
*647 FILLER_26_209
*648 FILLER_26_221
*649 FILLER_26_233
*650 FILLER_26_245
*651 FILLER_26_251
*652 FILLER_26_253
*653 FILLER_26_265
*654 FILLER_26_27
*655 FILLER_26_277
*656 FILLER_26_289
*657 FILLER_26_29
*658 FILLER_26_297
*659 FILLER_26_3
*660 FILLER_26_41
*661 FILLER_26_53
*662 FILLER_26_65
*663 FILLER_26_77
*664 FILLER_26_83
*665 FILLER_26_85
*666 FILLER_26_97
*667 FILLER_27_105
*668 FILLER_27_111
*669 FILLER_27_113
*670 FILLER_27_125
*671 FILLER_27_137
*672 FILLER_27_149
*673 FILLER_27_15
*674 FILLER_27_161
*675 FILLER_27_167
*676 FILLER_27_169
*677 FILLER_27_181
*678 FILLER_27_193
*679 FILLER_27_205
*680 FILLER_27_217
*681 FILLER_27_223
*682 FILLER_27_225
*683 FILLER_27_237
*684 FILLER_27_249
*685 FILLER_27_261
*686 FILLER_27_27
*687 FILLER_27_273
*688 FILLER_27_279
*689 FILLER_27_281
*690 FILLER_27_293
*691 FILLER_27_3
*692 FILLER_27_39
*693 FILLER_27_51
*694 FILLER_27_55
*695 FILLER_27_57
*696 FILLER_27_69
*697 FILLER_27_81
*698 FILLER_27_93
*699 FILLER_28_109
*700 FILLER_28_121
*701 FILLER_28_133
*702 FILLER_28_139
*703 FILLER_28_141
*704 FILLER_28_15
*705 FILLER_28_153
*706 FILLER_28_165
*707 FILLER_28_177
*708 FILLER_28_189
*709 FILLER_28_195
*710 FILLER_28_197
*711 FILLER_28_209
*712 FILLER_28_221
*713 FILLER_28_233
*714 FILLER_28_245
*715 FILLER_28_251
*716 FILLER_28_253
*717 FILLER_28_265
*718 FILLER_28_27
*719 FILLER_28_277
*720 FILLER_28_289
*721 FILLER_28_29
*722 FILLER_28_297
*723 FILLER_28_3
*724 FILLER_28_41
*725 FILLER_28_53
*726 FILLER_28_65
*727 FILLER_28_77
*728 FILLER_28_83
*729 FILLER_28_85
*730 FILLER_28_97
*731 FILLER_29_105
*732 FILLER_29_111
*733 FILLER_29_113
*734 FILLER_29_125
*735 FILLER_29_137
*736 FILLER_29_149
*737 FILLER_29_15
*738 FILLER_29_161
*739 FILLER_29_167
*740 FILLER_29_169
*741 FILLER_29_181
*742 FILLER_29_193
*743 FILLER_29_205
*744 FILLER_29_217
*745 FILLER_29_223
*746 FILLER_29_225
*747 FILLER_29_237
*748 FILLER_29_249
*749 FILLER_29_261
*750 FILLER_29_27
*751 FILLER_29_273
*752 FILLER_29_279
*753 FILLER_29_281
*754 FILLER_29_293
*755 FILLER_29_3
*756 FILLER_29_39
*757 FILLER_29_51
*758 FILLER_29_55
*759 FILLER_29_57
*760 FILLER_29_69
*761 FILLER_29_81
*762 FILLER_29_93
*763 FILLER_2_109
*764 FILLER_2_121
*765 FILLER_2_133
*766 FILLER_2_139
*767 FILLER_2_141
*768 FILLER_2_15
*769 FILLER_2_153
*770 FILLER_2_165
*771 FILLER_2_177
*772 FILLER_2_189
*773 FILLER_2_195
*774 FILLER_2_197
*775 FILLER_2_209
*776 FILLER_2_221
*777 FILLER_2_233
*778 FILLER_2_245
*779 FILLER_2_251
*780 FILLER_2_253
*781 FILLER_2_265
*782 FILLER_2_27
*783 FILLER_2_277
*784 FILLER_2_289
*785 FILLER_2_29
*786 FILLER_2_297
*787 FILLER_2_3
*788 FILLER_2_41
*789 FILLER_2_53
*790 FILLER_2_65
*791 FILLER_2_77
*792 FILLER_2_83
*793 FILLER_2_85
*794 FILLER_2_97
*795 FILLER_30_109
*796 FILLER_30_121
*797 FILLER_30_133
*798 FILLER_30_139
*799 FILLER_30_14
*800 FILLER_30_141
*801 FILLER_30_153
*802 FILLER_30_165
*803 FILLER_30_177
*804 FILLER_30_189
*805 FILLER_30_195
*806 FILLER_30_197
*807 FILLER_30_209
*808 FILLER_30_221
*809 FILLER_30_233
*810 FILLER_30_245
*811 FILLER_30_251
*812 FILLER_30_253
*813 FILLER_30_26
*814 FILLER_30_265
*815 FILLER_30_277
*816 FILLER_30_289
*817 FILLER_30_29
*818 FILLER_30_297
*819 FILLER_30_41
*820 FILLER_30_65
*821 FILLER_30_7
*822 FILLER_30_77
*823 FILLER_30_83
*824 FILLER_30_85
*825 FILLER_30_97
*826 FILLER_31_105
*827 FILLER_31_111
*828 FILLER_31_113
*829 FILLER_31_125
*830 FILLER_31_137
*831 FILLER_31_149
*832 FILLER_31_161
*833 FILLER_31_167
*834 FILLER_31_169
*835 FILLER_31_181
*836 FILLER_31_193
*837 FILLER_31_205
*838 FILLER_31_217
*839 FILLER_31_223
*840 FILLER_31_225
*841 FILLER_31_237
*842 FILLER_31_249
*843 FILLER_31_261
*844 FILLER_31_27
*845 FILLER_31_273
*846 FILLER_31_279
*847 FILLER_31_281
*848 FILLER_31_293
*849 FILLER_31_3
*850 FILLER_31_39
*851 FILLER_31_51
*852 FILLER_31_55
*853 FILLER_31_57
*854 FILLER_31_69
*855 FILLER_31_81
*856 FILLER_31_93
*857 FILLER_32_109
*858 FILLER_32_11
*859 FILLER_32_121
*860 FILLER_32_133
*861 FILLER_32_139
*862 FILLER_32_141
*863 FILLER_32_153
*864 FILLER_32_165
*865 FILLER_32_177
*866 FILLER_32_189
*867 FILLER_32_195
*868 FILLER_32_197
*869 FILLER_32_209
*870 FILLER_32_221
*871 FILLER_32_23
*872 FILLER_32_233
*873 FILLER_32_245
*874 FILLER_32_251
*875 FILLER_32_253
*876 FILLER_32_265
*877 FILLER_32_27
*878 FILLER_32_277
*879 FILLER_32_289
*880 FILLER_32_297
*881 FILLER_32_33
*882 FILLER_32_40
*883 FILLER_32_52
*884 FILLER_32_64
*885 FILLER_32_76
*886 FILLER_32_85
*887 FILLER_32_97
*888 FILLER_33_105
*889 FILLER_33_11
*890 FILLER_33_111
*891 FILLER_33_113
*892 FILLER_33_125
*893 FILLER_33_137
*894 FILLER_33_149
*895 FILLER_33_161
*896 FILLER_33_167
*897 FILLER_33_169
*898 FILLER_33_181
*899 FILLER_33_193
*900 FILLER_33_205
*901 FILLER_33_217
*902 FILLER_33_223
*903 FILLER_33_225
*904 FILLER_33_237
*905 FILLER_33_249
*906 FILLER_33_261
*907 FILLER_33_273
*908 FILLER_33_279
*909 FILLER_33_281
*910 FILLER_33_293
*911 FILLER_33_39
*912 FILLER_33_51
*913 FILLER_33_55
*914 FILLER_33_57
*915 FILLER_33_69
*916 FILLER_33_81
*917 FILLER_33_93
*918 FILLER_34_109
*919 FILLER_34_121
*920 FILLER_34_133
*921 FILLER_34_139
*922 FILLER_34_141
*923 FILLER_34_153
*924 FILLER_34_165
*925 FILLER_34_177
*926 FILLER_34_189
*927 FILLER_34_19
*928 FILLER_34_195
*929 FILLER_34_197
*930 FILLER_34_209
*931 FILLER_34_221
*932 FILLER_34_233
*933 FILLER_34_245
*934 FILLER_34_251
*935 FILLER_34_253
*936 FILLER_34_265
*937 FILLER_34_27
*938 FILLER_34_277
*939 FILLER_34_289
*940 FILLER_34_297
*941 FILLER_34_37
*942 FILLER_34_49
*943 FILLER_34_61
*944 FILLER_34_73
*945 FILLER_34_81
*946 FILLER_34_85
*947 FILLER_34_97
*948 FILLER_35_105
*949 FILLER_35_111
*950 FILLER_35_113
*951 FILLER_35_125
*952 FILLER_35_137
*953 FILLER_35_149
*954 FILLER_35_161
*955 FILLER_35_167
*956 FILLER_35_169
*957 FILLER_35_181
*958 FILLER_35_19
*959 FILLER_35_193
*960 FILLER_35_205
*961 FILLER_35_217
*962 FILLER_35_223
*963 FILLER_35_225
*964 FILLER_35_237
*965 FILLER_35_249
*966 FILLER_35_261
*967 FILLER_35_273
*968 FILLER_35_279
*969 FILLER_35_281
*970 FILLER_35_293
*971 FILLER_35_33
*972 FILLER_35_43
*973 FILLER_35_50
*974 FILLER_35_57
*975 FILLER_35_69
*976 FILLER_35_81
*977 FILLER_35_93
*978 FILLER_36_109
*979 FILLER_36_121
*980 FILLER_36_133
*981 FILLER_36_139
*982 FILLER_36_141
*983 FILLER_36_153
*984 FILLER_36_165
*985 FILLER_36_177
*986 FILLER_36_189
*987 FILLER_36_19
*988 FILLER_36_195
*989 FILLER_36_197
*990 FILLER_36_209
*991 FILLER_36_221
*992 FILLER_36_233
*993 FILLER_36_245
*994 FILLER_36_251
*995 FILLER_36_253
*996 FILLER_36_265
*997 FILLER_36_27
*998 FILLER_36_277
*999 FILLER_36_289
*1000 FILLER_36_297
*1001 FILLER_36_37
*1002 FILLER_36_47
*1003 FILLER_36_54
*1004 FILLER_36_66
*1005 FILLER_36_78
*1006 FILLER_36_85
*1007 FILLER_36_97
*1008 FILLER_37_108
*1009 FILLER_37_113
*1010 FILLER_37_125
*1011 FILLER_37_137
*1012 FILLER_37_149
*1013 FILLER_37_161
*1014 FILLER_37_167
*1015 FILLER_37_169
*1016 FILLER_37_181
*1017 FILLER_37_19
*1018 FILLER_37_193
*1019 FILLER_37_205
*1020 FILLER_37_217
*1021 FILLER_37_223
*1022 FILLER_37_225
*1023 FILLER_37_237
*1024 FILLER_37_249
*1025 FILLER_37_261
*1026 FILLER_37_273
*1027 FILLER_37_279
*1028 FILLER_37_281
*1029 FILLER_37_293
*1030 FILLER_37_33
*1031 FILLER_37_43
*1032 FILLER_37_50
*1033 FILLER_37_60
*1034 FILLER_37_72
*1035 FILLER_37_84
*1036 FILLER_37_96
*1037 FILLER_38_109
*1038 FILLER_38_121
*1039 FILLER_38_133
*1040 FILLER_38_139
*1041 FILLER_38_141
*1042 FILLER_38_153
*1043 FILLER_38_165
*1044 FILLER_38_177
*1045 FILLER_38_189
*1046 FILLER_38_19
*1047 FILLER_38_195
*1048 FILLER_38_197
*1049 FILLER_38_209
*1050 FILLER_38_221
*1051 FILLER_38_233
*1052 FILLER_38_245
*1053 FILLER_38_251
*1054 FILLER_38_253
*1055 FILLER_38_265
*1056 FILLER_38_27
*1057 FILLER_38_277
*1058 FILLER_38_289
*1059 FILLER_38_297
*1060 FILLER_38_36
*1061 FILLER_38_45
*1062 FILLER_38_52
*1063 FILLER_38_64
*1064 FILLER_38_76
*1065 FILLER_38_85
*1066 FILLER_38_97
*1067 FILLER_39_105
*1068 FILLER_39_11
*1069 FILLER_39_111
*1070 FILLER_39_113
*1071 FILLER_39_125
*1072 FILLER_39_137
*1073 FILLER_39_149
*1074 FILLER_39_161
*1075 FILLER_39_167
*1076 FILLER_39_169
*1077 FILLER_39_181
*1078 FILLER_39_193
*1079 FILLER_39_205
*1080 FILLER_39_217
*1081 FILLER_39_22
*1082 FILLER_39_223
*1083 FILLER_39_225
*1084 FILLER_39_237
*1085 FILLER_39_249
*1086 FILLER_39_261
*1087 FILLER_39_273
*1088 FILLER_39_279
*1089 FILLER_39_281
*1090 FILLER_39_293
*1091 FILLER_39_31
*1092 FILLER_39_38
*1093 FILLER_39_50
*1094 FILLER_39_57
*1095 FILLER_39_69
*1096 FILLER_39_81
*1097 FILLER_39_93
*1098 FILLER_3_105
*1099 FILLER_3_111
*1100 FILLER_3_113
*1101 FILLER_3_125
*1102 FILLER_3_137
*1103 FILLER_3_149
*1104 FILLER_3_15
*1105 FILLER_3_161
*1106 FILLER_3_167
*1107 FILLER_3_169
*1108 FILLER_3_181
*1109 FILLER_3_193
*1110 FILLER_3_205
*1111 FILLER_3_217
*1112 FILLER_3_223
*1113 FILLER_3_225
*1114 FILLER_3_237
*1115 FILLER_3_249
*1116 FILLER_3_261
*1117 FILLER_3_27
*1118 FILLER_3_273
*1119 FILLER_3_279
*1120 FILLER_3_281
*1121 FILLER_3_293
*1122 FILLER_3_3
*1123 FILLER_3_39
*1124 FILLER_3_51
*1125 FILLER_3_55
*1126 FILLER_3_57
*1127 FILLER_3_69
*1128 FILLER_3_81
*1129 FILLER_3_93
*1130 FILLER_40_10
*1131 FILLER_40_109
*1132 FILLER_40_121
*1133 FILLER_40_133
*1134 FILLER_40_139
*1135 FILLER_40_141
*1136 FILLER_40_153
*1137 FILLER_40_165
*1138 FILLER_40_177
*1139 FILLER_40_189
*1140 FILLER_40_195
*1141 FILLER_40_197
*1142 FILLER_40_20
*1143 FILLER_40_209
*1144 FILLER_40_221
*1145 FILLER_40_233
*1146 FILLER_40_245
*1147 FILLER_40_251
*1148 FILLER_40_253
*1149 FILLER_40_265
*1150 FILLER_40_277
*1151 FILLER_40_289
*1152 FILLER_40_297
*1153 FILLER_40_32
*1154 FILLER_40_44
*1155 FILLER_40_56
*1156 FILLER_40_68
*1157 FILLER_40_80
*1158 FILLER_40_85
*1159 FILLER_40_97
*1160 FILLER_41_105
*1161 FILLER_41_111
*1162 FILLER_41_113
*1163 FILLER_41_125
*1164 FILLER_41_137
*1165 FILLER_41_149
*1166 FILLER_41_161
*1167 FILLER_41_167
*1168 FILLER_41_169
*1169 FILLER_41_17
*1170 FILLER_41_181
*1171 FILLER_41_193
*1172 FILLER_41_205
*1173 FILLER_41_217
*1174 FILLER_41_223
*1175 FILLER_41_225
*1176 FILLER_41_237
*1177 FILLER_41_24
*1178 FILLER_41_249
*1179 FILLER_41_261
*1180 FILLER_41_273
*1181 FILLER_41_279
*1182 FILLER_41_281
*1183 FILLER_41_293
*1184 FILLER_41_36
*1185 FILLER_41_48
*1186 FILLER_41_57
*1187 FILLER_41_69
*1188 FILLER_41_81
*1189 FILLER_41_9
*1190 FILLER_41_93
*1191 FILLER_42_109
*1192 FILLER_42_121
*1193 FILLER_42_133
*1194 FILLER_42_139
*1195 FILLER_42_14
*1196 FILLER_42_141
*1197 FILLER_42_153
*1198 FILLER_42_165
*1199 FILLER_42_177
*1200 FILLER_42_189
*1201 FILLER_42_195
*1202 FILLER_42_197
*1203 FILLER_42_209
*1204 FILLER_42_21
*1205 FILLER_42_221
*1206 FILLER_42_233
*1207 FILLER_42_245
*1208 FILLER_42_251
*1209 FILLER_42_253
*1210 FILLER_42_265
*1211 FILLER_42_27
*1212 FILLER_42_277
*1213 FILLER_42_289
*1214 FILLER_42_29
*1215 FILLER_42_297
*1216 FILLER_42_41
*1217 FILLER_42_53
*1218 FILLER_42_65
*1219 FILLER_42_7
*1220 FILLER_42_77
*1221 FILLER_42_83
*1222 FILLER_42_85
*1223 FILLER_42_97
*1224 FILLER_43_105
*1225 FILLER_43_111
*1226 FILLER_43_113
*1227 FILLER_43_125
*1228 FILLER_43_137
*1229 FILLER_43_14
*1230 FILLER_43_149
*1231 FILLER_43_161
*1232 FILLER_43_167
*1233 FILLER_43_169
*1234 FILLER_43_181
*1235 FILLER_43_193
*1236 FILLER_43_205
*1237 FILLER_43_217
*1238 FILLER_43_223
*1239 FILLER_43_225
*1240 FILLER_43_237
*1241 FILLER_43_249
*1242 FILLER_43_26
*1243 FILLER_43_261
*1244 FILLER_43_273
*1245 FILLER_43_279
*1246 FILLER_43_281
*1247 FILLER_43_293
*1248 FILLER_43_38
*1249 FILLER_43_50
*1250 FILLER_43_57
*1251 FILLER_43_69
*1252 FILLER_43_7
*1253 FILLER_43_81
*1254 FILLER_43_93
*1255 FILLER_44_109
*1256 FILLER_44_121
*1257 FILLER_44_133
*1258 FILLER_44_139
*1259 FILLER_44_141
*1260 FILLER_44_153
*1261 FILLER_44_165
*1262 FILLER_44_177
*1263 FILLER_44_189
*1264 FILLER_44_19
*1265 FILLER_44_195
*1266 FILLER_44_197
*1267 FILLER_44_209
*1268 FILLER_44_221
*1269 FILLER_44_233
*1270 FILLER_44_245
*1271 FILLER_44_251
*1272 FILLER_44_253
*1273 FILLER_44_265
*1274 FILLER_44_27
*1275 FILLER_44_277
*1276 FILLER_44_289
*1277 FILLER_44_29
*1278 FILLER_44_297
*1279 FILLER_44_41
*1280 FILLER_44_53
*1281 FILLER_44_65
*1282 FILLER_44_7
*1283 FILLER_44_77
*1284 FILLER_44_83
*1285 FILLER_44_85
*1286 FILLER_44_97
*1287 FILLER_45_105
*1288 FILLER_45_111
*1289 FILLER_45_113
*1290 FILLER_45_125
*1291 FILLER_45_137
*1292 FILLER_45_149
*1293 FILLER_45_161
*1294 FILLER_45_167
*1295 FILLER_45_169
*1296 FILLER_45_181
*1297 FILLER_45_19
*1298 FILLER_45_193
*1299 FILLER_45_205
*1300 FILLER_45_217
*1301 FILLER_45_223
*1302 FILLER_45_225
*1303 FILLER_45_237
*1304 FILLER_45_249
*1305 FILLER_45_261
*1306 FILLER_45_273
*1307 FILLER_45_279
*1308 FILLER_45_281
*1309 FILLER_45_293
*1310 FILLER_45_31
*1311 FILLER_45_43
*1312 FILLER_45_55
*1313 FILLER_45_57
*1314 FILLER_45_69
*1315 FILLER_45_7
*1316 FILLER_45_81
*1317 FILLER_45_93
*1318 FILLER_46_109
*1319 FILLER_46_121
*1320 FILLER_46_133
*1321 FILLER_46_139
*1322 FILLER_46_141
*1323 FILLER_46_15
*1324 FILLER_46_153
*1325 FILLER_46_165
*1326 FILLER_46_177
*1327 FILLER_46_189
*1328 FILLER_46_195
*1329 FILLER_46_197
*1330 FILLER_46_209
*1331 FILLER_46_221
*1332 FILLER_46_233
*1333 FILLER_46_245
*1334 FILLER_46_251
*1335 FILLER_46_253
*1336 FILLER_46_265
*1337 FILLER_46_27
*1338 FILLER_46_277
*1339 FILLER_46_289
*1340 FILLER_46_29
*1341 FILLER_46_297
*1342 FILLER_46_3
*1343 FILLER_46_41
*1344 FILLER_46_53
*1345 FILLER_46_65
*1346 FILLER_46_77
*1347 FILLER_46_83
*1348 FILLER_46_85
*1349 FILLER_46_97
*1350 FILLER_47_105
*1351 FILLER_47_111
*1352 FILLER_47_113
*1353 FILLER_47_125
*1354 FILLER_47_137
*1355 FILLER_47_149
*1356 FILLER_47_15
*1357 FILLER_47_161
*1358 FILLER_47_167
*1359 FILLER_47_169
*1360 FILLER_47_181
*1361 FILLER_47_193
*1362 FILLER_47_205
*1363 FILLER_47_217
*1364 FILLER_47_223
*1365 FILLER_47_225
*1366 FILLER_47_237
*1367 FILLER_47_249
*1368 FILLER_47_261
*1369 FILLER_47_27
*1370 FILLER_47_273
*1371 FILLER_47_279
*1372 FILLER_47_281
*1373 FILLER_47_293
*1374 FILLER_47_3
*1375 FILLER_47_39
*1376 FILLER_47_51
*1377 FILLER_47_55
*1378 FILLER_47_57
*1379 FILLER_47_69
*1380 FILLER_47_81
*1381 FILLER_47_93
*1382 FILLER_48_109
*1383 FILLER_48_121
*1384 FILLER_48_133
*1385 FILLER_48_139
*1386 FILLER_48_141
*1387 FILLER_48_15
*1388 FILLER_48_153
*1389 FILLER_48_165
*1390 FILLER_48_177
*1391 FILLER_48_189
*1392 FILLER_48_195
*1393 FILLER_48_197
*1394 FILLER_48_209
*1395 FILLER_48_221
*1396 FILLER_48_233
*1397 FILLER_48_245
*1398 FILLER_48_251
*1399 FILLER_48_253
*1400 FILLER_48_265
*1401 FILLER_48_27
*1402 FILLER_48_277
*1403 FILLER_48_289
*1404 FILLER_48_29
*1405 FILLER_48_297
*1406 FILLER_48_3
*1407 FILLER_48_41
*1408 FILLER_48_53
*1409 FILLER_48_65
*1410 FILLER_48_77
*1411 FILLER_48_83
*1412 FILLER_48_85
*1413 FILLER_48_97
*1414 FILLER_49_105
*1415 FILLER_49_111
*1416 FILLER_49_113
*1417 FILLER_49_125
*1418 FILLER_49_137
*1419 FILLER_49_149
*1420 FILLER_49_15
*1421 FILLER_49_161
*1422 FILLER_49_167
*1423 FILLER_49_169
*1424 FILLER_49_181
*1425 FILLER_49_193
*1426 FILLER_49_205
*1427 FILLER_49_217
*1428 FILLER_49_223
*1429 FILLER_49_225
*1430 FILLER_49_237
*1431 FILLER_49_249
*1432 FILLER_49_261
*1433 FILLER_49_27
*1434 FILLER_49_273
*1435 FILLER_49_279
*1436 FILLER_49_281
*1437 FILLER_49_293
*1438 FILLER_49_3
*1439 FILLER_49_39
*1440 FILLER_49_51
*1441 FILLER_49_55
*1442 FILLER_49_57
*1443 FILLER_49_69
*1444 FILLER_49_81
*1445 FILLER_49_93
*1446 FILLER_4_109
*1447 FILLER_4_121
*1448 FILLER_4_133
*1449 FILLER_4_139
*1450 FILLER_4_141
*1451 FILLER_4_15
*1452 FILLER_4_153
*1453 FILLER_4_165
*1454 FILLER_4_177
*1455 FILLER_4_189
*1456 FILLER_4_195
*1457 FILLER_4_197
*1458 FILLER_4_209
*1459 FILLER_4_221
*1460 FILLER_4_233
*1461 FILLER_4_245
*1462 FILLER_4_251
*1463 FILLER_4_253
*1464 FILLER_4_265
*1465 FILLER_4_27
*1466 FILLER_4_277
*1467 FILLER_4_289
*1468 FILLER_4_29
*1469 FILLER_4_297
*1470 FILLER_4_3
*1471 FILLER_4_41
*1472 FILLER_4_53
*1473 FILLER_4_65
*1474 FILLER_4_77
*1475 FILLER_4_83
*1476 FILLER_4_85
*1477 FILLER_4_97
*1478 FILLER_50_109
*1479 FILLER_50_121
*1480 FILLER_50_133
*1481 FILLER_50_139
*1482 FILLER_50_141
*1483 FILLER_50_15
*1484 FILLER_50_153
*1485 FILLER_50_165
*1486 FILLER_50_177
*1487 FILLER_50_189
*1488 FILLER_50_195
*1489 FILLER_50_197
*1490 FILLER_50_209
*1491 FILLER_50_221
*1492 FILLER_50_233
*1493 FILLER_50_245
*1494 FILLER_50_251
*1495 FILLER_50_253
*1496 FILLER_50_265
*1497 FILLER_50_27
*1498 FILLER_50_277
*1499 FILLER_50_289
*1500 FILLER_50_29
*1501 FILLER_50_297
*1502 FILLER_50_3
*1503 FILLER_50_41
*1504 FILLER_50_53
*1505 FILLER_50_65
*1506 FILLER_50_77
*1507 FILLER_50_83
*1508 FILLER_50_85
*1509 FILLER_50_97
*1510 FILLER_51_105
*1511 FILLER_51_111
*1512 FILLER_51_113
*1513 FILLER_51_125
*1514 FILLER_51_137
*1515 FILLER_51_149
*1516 FILLER_51_15
*1517 FILLER_51_161
*1518 FILLER_51_167
*1519 FILLER_51_169
*1520 FILLER_51_181
*1521 FILLER_51_193
*1522 FILLER_51_205
*1523 FILLER_51_217
*1524 FILLER_51_223
*1525 FILLER_51_225
*1526 FILLER_51_237
*1527 FILLER_51_249
*1528 FILLER_51_261
*1529 FILLER_51_27
*1530 FILLER_51_273
*1531 FILLER_51_279
*1532 FILLER_51_281
*1533 FILLER_51_293
*1534 FILLER_51_3
*1535 FILLER_51_39
*1536 FILLER_51_51
*1537 FILLER_51_55
*1538 FILLER_51_57
*1539 FILLER_51_69
*1540 FILLER_51_81
*1541 FILLER_51_93
*1542 FILLER_52_109
*1543 FILLER_52_121
*1544 FILLER_52_133
*1545 FILLER_52_139
*1546 FILLER_52_141
*1547 FILLER_52_15
*1548 FILLER_52_153
*1549 FILLER_52_165
*1550 FILLER_52_177
*1551 FILLER_52_189
*1552 FILLER_52_195
*1553 FILLER_52_197
*1554 FILLER_52_209
*1555 FILLER_52_221
*1556 FILLER_52_233
*1557 FILLER_52_245
*1558 FILLER_52_251
*1559 FILLER_52_253
*1560 FILLER_52_265
*1561 FILLER_52_27
*1562 FILLER_52_277
*1563 FILLER_52_289
*1564 FILLER_52_29
*1565 FILLER_52_297
*1566 FILLER_52_3
*1567 FILLER_52_41
*1568 FILLER_52_53
*1569 FILLER_52_65
*1570 FILLER_52_77
*1571 FILLER_52_83
*1572 FILLER_52_85
*1573 FILLER_52_97
*1574 FILLER_53_105
*1575 FILLER_53_111
*1576 FILLER_53_113
*1577 FILLER_53_125
*1578 FILLER_53_137
*1579 FILLER_53_149
*1580 FILLER_53_15
*1581 FILLER_53_161
*1582 FILLER_53_167
*1583 FILLER_53_169
*1584 FILLER_53_181
*1585 FILLER_53_193
*1586 FILLER_53_205