*SPEF "ieee 1481-1999"
*DESIGN "user_module_342981109408072274"
*DATE "11:11:11 Fri 11 11, 1111"
*VENDOR "OpenRCX"
*PROGRAM "Parallel Extraction"
*VERSION "1.0"
*DESIGN_FLOW "NAME_SCOPE LOCAL" "PIN_CAP NONE"
*DIVIDER /
*DELIMITER :
*BUS_DELIMITER []
*T_UNIT 1 NS
*C_UNIT 1 PF
*R_UNIT 1 OHM
*L_UNIT 1 HENRY

*NAME_MAP
*1 io_in[0]
*2 io_in[1]
*3 io_in[2]
*4 io_in[3]
*5 io_in[4]
*6 io_in[5]
*7 io_in[6]
*8 io_in[7]
*9 io_out[0]
*10 io_out[1]
*11 io_out[2]
*12 io_out[3]
*13 io_out[4]
*14 io_out[5]
*15 io_out[6]
*16 io_out[7]
*19 _000_
*20 _001_
*21 _002_
*22 _003_
*23 _004_
*24 _005_
*25 _006_
*26 _007_
*27 _008_
*28 _009_
*29 _010_
*30 _011_
*31 _012_
*32 _013_
*33 _014_
*34 _015_
*35 _016_
*36 _017_
*37 _018_
*38 _019_
*39 _020_
*40 _021_
*41 _022_
*42 _023_
*43 _024_
*44 _025_
*45 clknet_0_flipflop1\.clk
*46 clknet_0_io_in[0]
*47 clknet_1_0__leaf_flipflop1\.clk
*48 clknet_1_0__leaf_io_in[0]
*49 clknet_1_1__leaf_flipflop1\.clk
*50 clknet_1_1__leaf_io_in[0]
*51 flipflop1\.clk
*52 flipflop1\.q
*53 flipflop10\.d
*54 flipflop10\.q
*55 flipflop11\.d
*56 flipflop11\.q
*57 flipflop12\.d
*58 flipflop12\.q
*59 flipflop13\.d
*60 flipflop13\.q
*61 flipflop14\.d
*62 flipflop14\.q
*63 flipflop15\.d
*64 flipflop15\.q
*65 flipflop16\.d
*66 flipflop16\.q
*67 flipflop17\.d
*68 flipflop17\.q
*69 flipflop18\.d
*70 flipflop18\.q
*71 flipflop19\.d
*72 flipflop19\.q
*73 flipflop2\.q
*74 flipflop20\.d
*75 flipflop20\.q
*76 flipflop3\.q
*77 flipflop4\.q
*78 flipflop5\.q
*79 flipflop6\.q
*80 flipflop7\.q
*81 flipflop8\.q
*82 flipflop9\.d
*83 flipflop9\.q
*84 mux10\.out
*85 mux11\.out
*86 mux12\.out
*87 mux5\.out
*88 mux6\.out
*89 mux7\.out
*90 mux8\.out
*91 mux9\.out
*92 net1
*93 net2
*94 net3
*95 net4
*96 FILLER_0_109
*97 FILLER_0_113
*98 FILLER_0_125
*99 FILLER_0_137
*100 FILLER_0_141
*101 FILLER_0_153
*102 FILLER_0_165
*103 FILLER_0_169
*104 FILLER_0_181
*105 FILLER_0_193
*106 FILLER_0_197
*107 FILLER_0_209
*108 FILLER_0_221
*109 FILLER_0_225
*110 FILLER_0_237
*111 FILLER_0_24
*112 FILLER_0_249
*113 FILLER_0_253
*114 FILLER_0_265
*115 FILLER_0_277
*116 FILLER_0_281
*117 FILLER_0_29
*118 FILLER_0_293
*119 FILLER_0_3
*120 FILLER_0_52
*121 FILLER_0_73
*122 FILLER_0_81
*123 FILLER_0_85
*124 FILLER_0_97
*125 FILLER_10_109
*126 FILLER_10_121
*127 FILLER_10_133
*128 FILLER_10_139
*129 FILLER_10_141
*130 FILLER_10_15
*131 FILLER_10_153
*132 FILLER_10_165
*133 FILLER_10_177
*134 FILLER_10_189
*135 FILLER_10_195
*136 FILLER_10_197
*137 FILLER_10_209
*138 FILLER_10_221
*139 FILLER_10_233
*140 FILLER_10_245
*141 FILLER_10_251
*142 FILLER_10_253
*143 FILLER_10_265
*144 FILLER_10_27
*145 FILLER_10_277
*146 FILLER_10_289
*147 FILLER_10_29
*148 FILLER_10_297
*149 FILLER_10_3
*150 FILLER_10_41
*151 FILLER_10_53
*152 FILLER_10_65
*153 FILLER_10_77
*154 FILLER_10_83
*155 FILLER_10_85
*156 FILLER_10_97
*157 FILLER_11_105
*158 FILLER_11_111
*159 FILLER_11_113
*160 FILLER_11_125
*161 FILLER_11_137
*162 FILLER_11_149
*163 FILLER_11_15
*164 FILLER_11_161
*165 FILLER_11_167
*166 FILLER_11_169
*167 FILLER_11_181
*168 FILLER_11_193
*169 FILLER_11_205
*170 FILLER_11_217
*171 FILLER_11_223
*172 FILLER_11_225
*173 FILLER_11_237
*174 FILLER_11_249
*175 FILLER_11_261
*176 FILLER_11_27
*177 FILLER_11_273
*178 FILLER_11_279
*179 FILLER_11_281
*180 FILLER_11_293
*181 FILLER_11_3
*182 FILLER_11_39
*183 FILLER_11_51
*184 FILLER_11_55
*185 FILLER_11_57
*186 FILLER_11_69
*187 FILLER_11_81
*188 FILLER_11_93
*189 FILLER_12_109
*190 FILLER_12_121
*191 FILLER_12_133
*192 FILLER_12_139
*193 FILLER_12_141
*194 FILLER_12_153
*195 FILLER_12_165
*196 FILLER_12_177
*197 FILLER_12_18
*198 FILLER_12_189
*199 FILLER_12_195
*200 FILLER_12_197
*201 FILLER_12_209
*202 FILLER_12_221
*203 FILLER_12_233
*204 FILLER_12_245
*205 FILLER_12_251
*206 FILLER_12_253
*207 FILLER_12_26
*208 FILLER_12_265
*209 FILLER_12_277
*210 FILLER_12_289
*211 FILLER_12_29
*212 FILLER_12_297
*213 FILLER_12_41
*214 FILLER_12_53
*215 FILLER_12_6
*216 FILLER_12_65
*217 FILLER_12_77
*218 FILLER_12_83
*219 FILLER_12_85
*220 FILLER_12_97
*221 FILLER_13_105
*222 FILLER_13_111
*223 FILLER_13_113
*224 FILLER_13_125
*225 FILLER_13_137
*226 FILLER_13_149
*227 FILLER_13_15
*228 FILLER_13_161
*229 FILLER_13_167
*230 FILLER_13_169
*231 FILLER_13_181
*232 FILLER_13_193
*233 FILLER_13_205
*234 FILLER_13_217
*235 FILLER_13_223
*236 FILLER_13_225
*237 FILLER_13_237
*238 FILLER_13_249
*239 FILLER_13_261
*240 FILLER_13_27
*241 FILLER_13_273
*242 FILLER_13_279
*243 FILLER_13_281
*244 FILLER_13_293
*245 FILLER_13_3
*246 FILLER_13_39
*247 FILLER_13_51
*248 FILLER_13_55
*249 FILLER_13_57
*250 FILLER_13_69
*251 FILLER_13_81
*252 FILLER_13_93
*253 FILLER_14_109
*254 FILLER_14_121
*255 FILLER_14_133
*256 FILLER_14_139
*257 FILLER_14_141
*258 FILLER_14_153
*259 FILLER_14_165
*260 FILLER_14_177
*261 FILLER_14_189
*262 FILLER_14_195
*263 FILLER_14_197
*264 FILLER_14_209
*265 FILLER_14_221
*266 FILLER_14_233
*267 FILLER_14_24
*268 FILLER_14_245
*269 FILLER_14_251
*270 FILLER_14_253
*271 FILLER_14_265
*272 FILLER_14_277
*273 FILLER_14_289
*274 FILLER_14_29
*275 FILLER_14_297
*276 FILLER_14_3
*277 FILLER_14_41
*278 FILLER_14_53
*279 FILLER_14_65
*280 FILLER_14_7
*281 FILLER_14_77
*282 FILLER_14_83
*283 FILLER_14_85
*284 FILLER_14_97
*285 FILLER_15_105
*286 FILLER_15_111
*287 FILLER_15_113
*288 FILLER_15_125
*289 FILLER_15_137
*290 FILLER_15_149
*291 FILLER_15_15
*292 FILLER_15_161
*293 FILLER_15_167
*294 FILLER_15_169
*295 FILLER_15_181
*296 FILLER_15_193
*297 FILLER_15_205
*298 FILLER_15_217
*299 FILLER_15_223
*300 FILLER_15_225
*301 FILLER_15_237
*302 FILLER_15_249
*303 FILLER_15_261
*304 FILLER_15_27
*305 FILLER_15_273
*306 FILLER_15_279
*307 FILLER_15_281
*308 FILLER_15_293
*309 FILLER_15_3
*310 FILLER_15_39
*311 FILLER_15_51
*312 FILLER_15_55
*313 FILLER_15_57
*314 FILLER_15_69
*315 FILLER_15_81
*316 FILLER_15_93
*317 FILLER_16_109
*318 FILLER_16_121
*319 FILLER_16_133
*320 FILLER_16_139
*321 FILLER_16_141
*322 FILLER_16_15
*323 FILLER_16_153
*324 FILLER_16_165
*325 FILLER_16_177
*326 FILLER_16_189
*327 FILLER_16_195
*328 FILLER_16_197
*329 FILLER_16_209
*330 FILLER_16_221
*331 FILLER_16_233
*332 FILLER_16_245
*333 FILLER_16_251
*334 FILLER_16_253
*335 FILLER_16_265
*336 FILLER_16_27
*337 FILLER_16_277
*338 FILLER_16_289
*339 FILLER_16_29
*340 FILLER_16_297
*341 FILLER_16_3
*342 FILLER_16_41
*343 FILLER_16_53
*344 FILLER_16_65
*345 FILLER_16_77
*346 FILLER_16_83
*347 FILLER_16_85
*348 FILLER_16_97
*349 FILLER_17_105
*350 FILLER_17_111
*351 FILLER_17_113
*352 FILLER_17_125
*353 FILLER_17_137
*354 FILLER_17_149
*355 FILLER_17_161
*356 FILLER_17_167
*357 FILLER_17_169
*358 FILLER_17_181
*359 FILLER_17_193
*360 FILLER_17_205
*361 FILLER_17_217
*362 FILLER_17_223
*363 FILLER_17_225
*364 FILLER_17_237
*365 FILLER_17_24
*366 FILLER_17_249
*367 FILLER_17_261
*368 FILLER_17_273
*369 FILLER_17_279
*370 FILLER_17_281
*371 FILLER_17_293
*372 FILLER_17_3
*373 FILLER_17_44
*374 FILLER_17_57
*375 FILLER_17_69
*376 FILLER_17_7
*377 FILLER_17_81
*378 FILLER_17_93
*379 FILLER_18_109
*380 FILLER_18_121
*381 FILLER_18_133
*382 FILLER_18_139
*383 FILLER_18_141
*384 FILLER_18_15
*385 FILLER_18_153
*386 FILLER_18_165
*387 FILLER_18_177
*388 FILLER_18_189
*389 FILLER_18_195
*390 FILLER_18_197
*391 FILLER_18_209
*392 FILLER_18_221
*393 FILLER_18_233
*394 FILLER_18_245
*395 FILLER_18_251
*396 FILLER_18_253
*397 FILLER_18_265
*398 FILLER_18_27
*399 FILLER_18_277
*400 FILLER_18_289
*401 FILLER_18_29
*402 FILLER_18_297
*403 FILLER_18_3
*404 FILLER_18_41
*405 FILLER_18_53
*406 FILLER_18_65
*407 FILLER_18_77
*408 FILLER_18_83
*409 FILLER_18_85
*410 FILLER_18_97
*411 FILLER_19_105
*412 FILLER_19_111
*413 FILLER_19_113
*414 FILLER_19_125
*415 FILLER_19_137
*416 FILLER_19_149
*417 FILLER_19_15
*418 FILLER_19_161
*419 FILLER_19_167
*420 FILLER_19_169
*421 FILLER_19_181
*422 FILLER_19_193
*423 FILLER_19_205
*424 FILLER_19_217
*425 FILLER_19_223
*426 FILLER_19_225
*427 FILLER_19_23
*428 FILLER_19_237
*429 FILLER_19_249
*430 FILLER_19_261
*431 FILLER_19_273
*432 FILLER_19_279
*433 FILLER_19_28
*434 FILLER_19_281
*435 FILLER_19_293
*436 FILLER_19_3
*437 FILLER_19_40
*438 FILLER_19_52
*439 FILLER_19_57
*440 FILLER_19_69
*441 FILLER_19_81
*442 FILLER_19_93
*443 FILLER_1_109
*444 FILLER_1_113
*445 FILLER_1_12
*446 FILLER_1_125
*447 FILLER_1_137
*448 FILLER_1_149
*449 FILLER_1_161
*450 FILLER_1_167
*451 FILLER_1_169
*452 FILLER_1_181
*453 FILLER_1_193
*454 FILLER_1_205
*455 FILLER_1_217
*456 FILLER_1_223
*457 FILLER_1_225
*458 FILLER_1_237
*459 FILLER_1_249
*460 FILLER_1_261
*461 FILLER_1_273
*462 FILLER_1_279
*463 FILLER_1_281
*464 FILLER_1_293
*465 FILLER_1_36
*466 FILLER_1_48
*467 FILLER_1_73
*468 FILLER_1_85
*469 FILLER_1_97
*470 FILLER_20_109
*471 FILLER_20_121
*472 FILLER_20_133
*473 FILLER_20_139
*474 FILLER_20_14
*475 FILLER_20_141
*476 FILLER_20_153
*477 FILLER_20_165
*478 FILLER_20_177
*479 FILLER_20_189
*480 FILLER_20_195
*481 FILLER_20_197
*482 FILLER_20_20
*483 FILLER_20_209
*484 FILLER_20_221
*485 FILLER_20_233
*486 FILLER_20_245
*487 FILLER_20_251
*488 FILLER_20_253
*489 FILLER_20_265
*490 FILLER_20_277
*491 FILLER_20_289
*492 FILLER_20_297
*493 FILLER_20_45
*494 FILLER_20_57
*495 FILLER_20_6
*496 FILLER_20_69
*497 FILLER_20_81
*498 FILLER_20_85
*499 FILLER_20_97
*500 FILLER_21_105
*501 FILLER_21_111
*502 FILLER_21_113
*503 FILLER_21_125
*504 FILLER_21_137
*505 FILLER_21_149
*506 FILLER_21_161
*507 FILLER_21_167
*508 FILLER_21_169
*509 FILLER_21_181
*510 FILLER_21_19
*511 FILLER_21_193
*512 FILLER_21_205
*513 FILLER_21_217
*514 FILLER_21_223
*515 FILLER_21_225
*516 FILLER_21_237
*517 FILLER_21_249
*518 FILLER_21_26
*519 FILLER_21_261
*520 FILLER_21_273
*521 FILLER_21_279
*522 FILLER_21_281
*523 FILLER_21_293
*524 FILLER_21_3
*525 FILLER_21_33
*526 FILLER_21_45
*527 FILLER_21_53
*528 FILLER_21_57
*529 FILLER_21_69
*530 FILLER_21_8
*531 FILLER_21_81
*532 FILLER_21_93
*533 FILLER_22_109
*534 FILLER_22_121
*535 FILLER_22_133
*536 FILLER_22_139
*537 FILLER_22_141
*538 FILLER_22_15
*539 FILLER_22_153
*540 FILLER_22_165
*541 FILLER_22_177
*542 FILLER_22_189
*543 FILLER_22_195
*544 FILLER_22_197
*545 FILLER_22_20
*546 FILLER_22_209
*547 FILLER_22_221
*548 FILLER_22_233
*549 FILLER_22_245
*550 FILLER_22_251
*551 FILLER_22_253
*552 FILLER_22_265
*553 FILLER_22_277
*554 FILLER_22_289
*555 FILLER_22_29
*556 FILLER_22_297
*557 FILLER_22_3
*558 FILLER_22_41
*559 FILLER_22_53
*560 FILLER_22_65
*561 FILLER_22_77
*562 FILLER_22_83
*563 FILLER_22_85
*564 FILLER_22_97
*565 FILLER_23_105
*566 FILLER_23_111
*567 FILLER_23_113
*568 FILLER_23_125
*569 FILLER_23_137
*570 FILLER_23_149
*571 FILLER_23_15
*572 FILLER_23_161
*573 FILLER_23_167
*574 FILLER_23_169
*575 FILLER_23_181
*576 FILLER_23_19
*577 FILLER_23_193
*578 FILLER_23_205
*579 FILLER_23_217
*580 FILLER_23_223
*581 FILLER_23_225
*582 FILLER_23_237
*583 FILLER_23_249
*584 FILLER_23_261
*585 FILLER_23_273
*586 FILLER_23_279
*587 FILLER_23_281
*588 FILLER_23_293
*589 FILLER_23_3
*590 FILLER_23_39
*591 FILLER_23_51
*592 FILLER_23_55
*593 FILLER_23_57
*594 FILLER_23_69
*595 FILLER_23_81
*596 FILLER_23_93
*597 FILLER_24_109
*598 FILLER_24_12
*599 FILLER_24_121
*600 FILLER_24_133
*601 FILLER_24_139
*602 FILLER_24_141
*603 FILLER_24_153
*604 FILLER_24_16
*605 FILLER_24_165
*606 FILLER_24_177
*607 FILLER_24_189
*608 FILLER_24_195
*609 FILLER_24_197
*610 FILLER_24_209
*611 FILLER_24_221
*612 FILLER_24_233
*613 FILLER_24_24
*614 FILLER_24_245
*615 FILLER_24_251
*616 FILLER_24_253
*617 FILLER_24_265
*618 FILLER_24_277
*619 FILLER_24_289
*620 FILLER_24_29
*621 FILLER_24_297
*622 FILLER_24_40
*623 FILLER_24_47
*624 FILLER_24_59
*625 FILLER_24_6
*626 FILLER_24_71
*627 FILLER_24_83
*628 FILLER_24_85
*629 FILLER_24_97
*630 FILLER_25_105
*631 FILLER_25_111
*632 FILLER_25_113
*633 FILLER_25_125
*634 FILLER_25_137
*635 FILLER_25_149
*636 FILLER_25_161
*637 FILLER_25_167
*638 FILLER_25_169
*639 FILLER_25_18
*640 FILLER_25_181
*641 FILLER_25_193
*642 FILLER_25_205
*643 FILLER_25_217
*644 FILLER_25_223
*645 FILLER_25_225
*646 FILLER_25_23
*647 FILLER_25_237
*648 FILLER_25_249
*649 FILLER_25_261
*650 FILLER_25_273
*651 FILLER_25_279
*652 FILLER_25_281
*653 FILLER_25_293
*654 FILLER_25_35
*655 FILLER_25_39
*656 FILLER_25_51
*657 FILLER_25_55
*658 FILLER_25_57
*659 FILLER_25_6
*660 FILLER_25_69
*661 FILLER_25_81
*662 FILLER_25_93
*663 FILLER_26_109
*664 FILLER_26_121
*665 FILLER_26_133
*666 FILLER_26_139
*667 FILLER_26_141
*668 FILLER_26_153
*669 FILLER_26_16
*670 FILLER_26_165
*671 FILLER_26_177
*672 FILLER_26_189
*673 FILLER_26_195
*674 FILLER_26_197
*675 FILLER_26_20
*676 FILLER_26_209
*677 FILLER_26_221
*678 FILLER_26_233
*679 FILLER_26_24
*680 FILLER_26_245
*681 FILLER_26_251
*682 FILLER_26_253
*683 FILLER_26_265
*684 FILLER_26_277
*685 FILLER_26_289
*686 FILLER_26_297
*687 FILLER_26_3
*688 FILLER_26_45
*689 FILLER_26_57
*690 FILLER_26_69
*691 FILLER_26_81
*692 FILLER_26_85
*693 FILLER_26_9
*694 FILLER_26_97
*695 FILLER_27_105
*696 FILLER_27_111
*697 FILLER_27_113
*698 FILLER_27_125
*699 FILLER_27_137
*700 FILLER_27_149
*701 FILLER_27_161
*702 FILLER_27_167
*703 FILLER_27_169
*704 FILLER_27_181
*705 FILLER_27_19
*706 FILLER_27_193
*707 FILLER_27_205
*708 FILLER_27_217
*709 FILLER_27_223
*710 FILLER_27_225
*711 FILLER_27_237
*712 FILLER_27_249
*713 FILLER_27_26
*714 FILLER_27_261
*715 FILLER_27_273
*716 FILLER_27_279
*717 FILLER_27_281
*718 FILLER_27_293
*719 FILLER_27_38
*720 FILLER_27_50
*721 FILLER_27_57
*722 FILLER_27_69
*723 FILLER_27_81
*724 FILLER_27_93
*725 FILLER_28_109
*726 FILLER_28_121
*727 FILLER_28_133
*728 FILLER_28_139
*729 FILLER_28_141
*730 FILLER_28_153
*731 FILLER_28_165
*732 FILLER_28_17
*733 FILLER_28_177
*734 FILLER_28_189
*735 FILLER_28_195
*736 FILLER_28_197
*737 FILLER_28_209
*738 FILLER_28_221
*739 FILLER_28_233
*740 FILLER_28_24
*741 FILLER_28_245
*742 FILLER_28_251
*743 FILLER_28_253
*744 FILLER_28_265
*745 FILLER_28_277
*746 FILLER_28_289
*747 FILLER_28_29
*748 FILLER_28_297
*749 FILLER_28_3
*750 FILLER_28_35
*751 FILLER_28_47
*752 FILLER_28_59
*753 FILLER_28_71
*754 FILLER_28_8
*755 FILLER_28_83
*756 FILLER_28_85
*757 FILLER_28_97
*758 FILLER_29_105
*759 FILLER_29_111
*760 FILLER_29_113
*761 FILLER_29_12
*762 FILLER_29_125
*763 FILLER_29_137
*764 FILLER_29_149
*765 FILLER_29_161
*766 FILLER_29_167
*767 FILLER_29_169
*768 FILLER_29_181
*769 FILLER_29_193
*770 FILLER_29_205
*771 FILLER_29_217
*772 FILLER_29_223
*773 FILLER_29_225
*774 FILLER_29_23
*775 FILLER_29_237
*776 FILLER_29_249
*777 FILLER_29_261
*778 FILLER_29_273
*779 FILLER_29_279
*780 FILLER_29_281
*781 FILLER_29_29
*782 FILLER_29_293
*783 FILLER_29_3
*784 FILLER_29_46
*785 FILLER_29_54
*786 FILLER_29_57
*787 FILLER_29_69
*788 FILLER_29_81
*789 FILLER_29_93
*790 FILLER_2_109
*791 FILLER_2_121
*792 FILLER_2_133
*793 FILLER_2_139
*794 FILLER_2_141
*795 FILLER_2_153
*796 FILLER_2_165
*797 FILLER_2_177
*798 FILLER_2_189
*799 FILLER_2_195
*800 FILLER_2_197
*801 FILLER_2_209
*802 FILLER_2_221
*803 FILLER_2_233
*804 FILLER_2_24
*805 FILLER_2_245
*806 FILLER_2_251
*807 FILLER_2_253
*808 FILLER_2_265
*809 FILLER_2_277
*810 FILLER_2_289
*811 FILLER_2_29
*812 FILLER_2_297
*813 FILLER_2_3
*814 FILLER_2_37
*815 FILLER_2_56
*816 FILLER_2_76
*817 FILLER_2_85
*818 FILLER_2_97
*819 FILLER_30_107
*820 FILLER_30_11
*821 FILLER_30_119
*822 FILLER_30_131
*823 FILLER_30_139
*824 FILLER_30_141
*825 FILLER_30_153
*826 FILLER_30_165
*827 FILLER_30_177
*828 FILLER_30_189
*829 FILLER_30_195
*830 FILLER_30_197
*831 FILLER_30_209
*832 FILLER_30_221
*833 FILLER_30_233
*834 FILLER_30_24
*835 FILLER_30_245
*836 FILLER_30_251
*837 FILLER_30_253
*838 FILLER_30_265
*839 FILLER_30_277
*840 FILLER_30_289
*841 FILLER_30_29
*842 FILLER_30_297
*843 FILLER_30_41
*844 FILLER_30_53
*845 FILLER_30_65
*846 FILLER_30_77
*847 FILLER_30_83
*848 FILLER_30_85
*849 FILLER_30_91
*850 FILLER_30_95
*851 FILLER_31_105
*852 FILLER_31_111
*853 FILLER_31_113
*854 FILLER_31_12
*855 FILLER_31_125
*856 FILLER_31_137
*857 FILLER_31_149
*858 FILLER_31_161
*859 FILLER_31_167
*860 FILLER_31_169
*861 FILLER_31_181
*862 FILLER_31_19
*863 FILLER_31_193
*864 FILLER_31_205
*865 FILLER_31_217
*866 FILLER_31_223
*867 FILLER_31_225
*868 FILLER_31_237
*869 FILLER_31_249
*870 FILLER_31_25
*871 FILLER_31_261
*872 FILLER_31_273
*873 FILLER_31_279
*874 FILLER_31_281
*875 FILLER_31_293
*876 FILLER_31_42
*877 FILLER_31_54
*878 FILLER_31_57
*879 FILLER_31_69
*880 FILLER_31_81
*881 FILLER_31_93
*882 FILLER_32_109
*883 FILLER_32_121
*884 FILLER_32_133
*885 FILLER_32_139
*886 FILLER_32_141
*887 FILLER_32_15
*888 FILLER_32_153
*889 FILLER_32_165
*890 FILLER_32_177
*891 FILLER_32_189
*892 FILLER_32_195
*893 FILLER_32_197
*894 FILLER_32_209
*895 FILLER_32_221
*896 FILLER_32_233
*897 FILLER_32_245
*898 FILLER_32_251
*899 FILLER_32_253
*900 FILLER_32_265
*901 FILLER_32_27
*902 FILLER_32_277
*903 FILLER_32_289
*904 FILLER_32_29
*905 FILLER_32_297
*906 FILLER_32_3
*907 FILLER_32_41
*908 FILLER_32_58
*909 FILLER_32_70
*910 FILLER_32_82
*911 FILLER_32_85
*912 FILLER_32_97
*913 FILLER_33_105
*914 FILLER_33_11
*915 FILLER_33_111
*916 FILLER_33_113
*917 FILLER_33_125
*918 FILLER_33_137
*919 FILLER_33_149
*920 FILLER_33_161
*921 FILLER_33_167
*922 FILLER_33_169
*923 FILLER_33_17
*924 FILLER_33_181
*925 FILLER_33_193
*926 FILLER_33_205
*927 FILLER_33_217
*928 FILLER_33_223
*929 FILLER_33_225
*930 FILLER_33_237
*931 FILLER_33_249
*932 FILLER_33_261
*933 FILLER_33_273
*934 FILLER_33_279
*935 FILLER_33_281
*936 FILLER_33_293
*937 FILLER_33_3
*938 FILLER_33_30
*939 FILLER_33_42
*940 FILLER_33_54
*941 FILLER_33_57
*942 FILLER_33_69
*943 FILLER_33_81
*944 FILLER_33_93
*945 FILLER_34_109
*946 FILLER_34_121
*947 FILLER_34_13
*948 FILLER_34_133
*949 FILLER_34_139
*950 FILLER_34_141
*951 FILLER_34_153
*952 FILLER_34_165
*953 FILLER_34_177
*954 FILLER_34_189
*955 FILLER_34_195
*956 FILLER_34_197
*957 FILLER_34_209
*958 FILLER_34_221
*959 FILLER_34_233
*960 FILLER_34_245
*961 FILLER_34_25
*962 FILLER_34_251
*963 FILLER_34_253
*964 FILLER_34_265
*965 FILLER_34_277
*966 FILLER_34_289
*967 FILLER_34_297
*968 FILLER_34_3
*969 FILLER_34_45
*970 FILLER_34_57
*971 FILLER_34_69
*972 FILLER_34_7
*973 FILLER_34_81
*974 FILLER_34_85
*975 FILLER_34_97
*976 FILLER_35_105
*977 FILLER_35_111
*978 FILLER_35_113
*979 FILLER_35_125
*980 FILLER_35_13
*981 FILLER_35_137
*982 FILLER_35_149
*983 FILLER_35_161
*984 FILLER_35_167
*985 FILLER_35_169
*986 FILLER_35_181
*987 FILLER_35_193
*988 FILLER_35_205
*989 FILLER_35_21
*990 FILLER_35_217
*991 FILLER_35_223
*992 FILLER_35_225
*993 FILLER_35_237
*994 FILLER_35_249
*995 FILLER_35_261
*996 FILLER_35_27
*997 FILLER_35_273
*998 FILLER_35_279
*999 FILLER_35_281
*1000 FILLER_35_293
*1001 FILLER_35_3
*1002 FILLER_35_39
*1003 FILLER_35_51
*1004 FILLER_35_55
*1005 FILLER_35_57
*1006 FILLER_35_69
*1007 FILLER_35_81
*1008 FILLER_35_93
*1009 FILLER_36_109
*1010 FILLER_36_121
*1011 FILLER_36_133
*1012 FILLER_36_139
*1013 FILLER_36_141
*1014 FILLER_36_153
*1015 FILLER_36_165
*1016 FILLER_36_177
*1017 FILLER_36_189
*1018 FILLER_36_195
*1019 FILLER_36_197
*1020 FILLER_36_209
*1021 FILLER_36_221
*1022 FILLER_36_233
*1023 FILLER_36_24
*1024 FILLER_36_245
*1025 FILLER_36_251
*1026 FILLER_36_253
*1027 FILLER_36_265
*1028 FILLER_36_277
*1029 FILLER_36_289
*1030 FILLER_36_29
*1031 FILLER_36_297
*1032 FILLER_36_3
*1033 FILLER_36_41
*1034 FILLER_36_53
*1035 FILLER_36_65
*1036 FILLER_36_77
*1037 FILLER_36_83
*1038 FILLER_36_85
*1039 FILLER_36_97
*1040 FILLER_37_105
*1041 FILLER_37_111
*1042 FILLER_37_113
*1043 FILLER_37_12
*1044 FILLER_37_125
*1045 FILLER_37_137
*1046 FILLER_37_149
*1047 FILLER_37_161
*1048 FILLER_37_167
*1049 FILLER_37_169
*1050 FILLER_37_181
*1051 FILLER_37_193
*1052 FILLER_37_205
*1053 FILLER_37_217
*1054 FILLER_37_223
*1055 FILLER_37_225
*1056 FILLER_37_237
*1057 FILLER_37_24
*1058 FILLER_37_249
*1059 FILLER_37_261
*1060 FILLER_37_273
*1061 FILLER_37_279
*1062 FILLER_37_281
*1063 FILLER_37_293
*1064 FILLER_37_36
*1065 FILLER_37_48
*1066 FILLER_37_57
*1067 FILLER_37_69
*1068 FILLER_37_81
*1069 FILLER_37_93
*1070 FILLER_38_109
*1071 FILLER_38_121
*1072 FILLER_38_133
*1073 FILLER_38_139
*1074 FILLER_38_141
*1075 FILLER_38_153
*1076 FILLER_38_16
*1077 FILLER_38_165
*1078 FILLER_38_177
*1079 FILLER_38_189
*1080 FILLER_38_195
*1081 FILLER_38_197
*1082 FILLER_38_209
*1083 FILLER_38_221
*1084 FILLER_38_23
*1085 FILLER_38_233
*1086 FILLER_38_245
*1087 FILLER_38_251
*1088 FILLER_38_253
*1089 FILLER_38_265
*1090 FILLER_38_27
*1091 FILLER_38_277
*1092 FILLER_38_289
*1093 FILLER_38_297
*1094 FILLER_38_3
*1095 FILLER_38_33
*1096 FILLER_38_45
*1097 FILLER_38_57
*1098 FILLER_38_69
*1099 FILLER_38_81
*1100 FILLER_38_85
*1101 FILLER_38_97
*1102 FILLER_39_105
*1103 FILLER_39_111
*1104 FILLER_39_113
*1105 FILLER_39_125
*1106 FILLER_39_137
*1107 FILLER_39_149
*1108 FILLER_39_161
*1109 FILLER_39_167
*1110 FILLER_39_169
*1111 FILLER_39_181
*1112 FILLER_39_193
*1113 FILLER_39_205
*1114 FILLER_39_217
*1115 FILLER_39_223
*1116 FILLER_39_225
*1117 FILLER_39_237
*1118 FILLER_39_24
*1119 FILLER_39_249
*1120 FILLER_39_261
*1121 FILLER_39_273
*1122 FILLER_39_279
*1123 FILLER_39_281
*1124 FILLER_39_293
*1125 FILLER_39_3
*1126 FILLER_39_39
*1127 FILLER_39_51
*1128 FILLER_39_55
*1129 FILLER_39_57
*1130 FILLER_39_69
*1131 FILLER_39_81
*1132 FILLER_39_93
*1133 FILLER_3_10
*1134 FILLER_3_109
*1135 FILLER_3_113
*1136 FILLER_3_125
*1137 FILLER_3_137
*1138 FILLER_3_149
*1139 FILLER_3_161
*1140 FILLER_3_167
*1141 FILLER_3_169
*1142 FILLER_3_18
*1143 FILLER_3_181
*1144 FILLER_3_193
*1145 FILLER_3_205
*1146 FILLER_3_217
*1147 FILLER_3_223
*1148 FILLER_3_225
*1149 FILLER_3_237
*1150 FILLER_3_249
*1151 FILLER_3_261
*1152 FILLER_3_273
*1153 FILLER_3_279
*1154 FILLER_3_281
*1155 FILLER_3_293
*1156 FILLER_3_3
*1157 FILLER_3_40
*1158 FILLER_3_52
*1159 FILLER_3_73
*1160 FILLER_3_85
*1161 FILLER_3_97
*1162 FILLER_40_109
*1163 FILLER_40_11
*1164 FILLER_40_121
*1165 FILLER_40_133
*1166 FILLER_40_139
*1167 FILLER_40_141
*1168 FILLER_40_153
*1169 FILLER_40_165
*1170 FILLER_40_177
*1171 FILLER_40_18
*1172 FILLER_40_189
*1173 FILLER_40_195
*1174 FILLER_40_197
*1175 FILLER_40_209
*1176 FILLER_40_221
*1177 FILLER_40_233
*1178 FILLER_40_245
*1179 FILLER_40_251
*1180 FILLER_40_253
*1181 FILLER_40_26
*1182 FILLER_40_265
*1183 FILLER_40_277
*1184 FILLER_40_289
*1185 FILLER_40_297
*1186 FILLER_40_3
*1187 FILLER_40_33
*1188 FILLER_40_45
*1189 FILLER_40_57
*1190 FILLER_40_69
*1191 FILLER_40_7
*1192 FILLER_40_81
*1193 FILLER_40_85
*1194 FILLER_40_97
*1195 FILLER_41_105
*1196 FILLER_41_11
*1197 FILLER_41_111
*1198 FILLER_41_113
*1199 FILLER_41_125
*1200 FILLER_41_137
*1201 FILLER_41_149
*1202 FILLER_41_161
*1203 FILLER_41_167
*1204 FILLER_41_169
*1205 FILLER_41_18
*1206 FILLER_41_181
*1207 FILLER_41_193
*1208 FILLER_41_205
*1209 FILLER_41_217
*1210 FILLER_41_223
*1211 FILLER_41_225
*1212 FILLER_41_237
*1213 FILLER_41_249
*1214 FILLER_41_261
*1215 FILLER_41_273
*1216 FILLER_41_279
*1217 FILLER_41_281
*1218 FILLER_41_293
*1219 FILLER_41_3
*1220 FILLER_41_34
*1221 FILLER_41_46
*1222 FILLER_41_54
*1223 FILLER_41_57
*1224 FILLER_41_69
*1225 FILLER_41_7
*1226 FILLER_41_81
*1227 FILLER_41_93
*1228 FILLER_42_109
*1229 FILLER_42_11
*1230 FILLER_42_121
*1231 FILLER_42_133
*1232 FILLER_42_139
*1233 FILLER_42_141
*1234 FILLER_42_153
*1235 FILLER_42_165
*1236 FILLER_42_177
*1237 FILLER_42_18
*1238 FILLER_42_189
*1239 FILLER_42_195
*1240 FILLER_42_197
*1241 FILLER_42_209
*1242 FILLER_42_221
*1243 FILLER_42_233
*1244 FILLER_42_245
*1245 FILLER_42_251
*1246 FILLER_42_253
*1247 FILLER_42_26
*1248 FILLER_42_265
*1249 FILLER_42_277
*1250 FILLER_42_289
*1251 FILLER_42_29
*1252 FILLER_42_297
*1253 FILLER_42_3
*1254 FILLER_42_41
*1255 FILLER_42_53
*1256 FILLER_42_65
*1257 FILLER_42_7
*1258 FILLER_42_77
*1259 FILLER_42_83
*1260 FILLER_42_85
*1261 FILLER_42_97
*1262 FILLER_43_10
*1263 FILLER_43_105
*1264 FILLER_43_111
*1265 FILLER_43_113
*1266 FILLER_43_125
*1267 FILLER_43_137
*1268 FILLER_43_149
*1269 FILLER_43_161
*1270 FILLER_43_167
*1271 FILLER_43_169
*1272 FILLER_43_181
*1273 FILLER_43_193
*1274 FILLER_43_205
*1275 FILLER_43_217
*1276 FILLER_43_22
*1277 FILLER_43_223
*1278 FILLER_43_225
*1279 FILLER_43_237
*1280 FILLER_43_249
*1281 FILLER_43_261
*1282 FILLER_43_273
*1283 FILLER_43_279
*1284 FILLER_43_281
*1285 FILLER_43_293
*1286 FILLER_43_3
*1287 FILLER_43_34
*1288 FILLER_43_46
*1289 FILLER_43_54
*1290 FILLER_43_57
*1291 FILLER_43_69
*1292 FILLER_43_81
*1293 FILLER_43_93
*1294 FILLER_44_109
*1295 FILLER_44_121
*1296 FILLER_44_133
*1297 FILLER_44_139
*1298 FILLER_44_141
*1299 FILLER_44_15
*1300 FILLER_44_153
*1301 FILLER_44_165
*1302 FILLER_44_177
*1303 FILLER_44_189
*1304 FILLER_44_195
*1305 FILLER_44_197
*1306 FILLER_44_209
*1307 FILLER_44_221
*1308 FILLER_44_233
*1309 FILLER_44_245
*1310 FILLER_44_251
*1311 FILLER_44_253
*1312 FILLER_44_265
*1313 FILLER_44_27
*1314 FILLER_44_277
*1315 FILLER_44_289
*1316 FILLER_44_29
*1317 FILLER_44_297
*1318 FILLER_44_3
*1319 FILLER_44_41
*1320 FILLER_44_53
*1321 FILLER_44_65
*1322 FILLER_44_77
*1323 FILLER_44_83
*1324 FILLER_44_85
*1325 FILLER_44_97
*1326 FILLER_45_10
*1327 FILLER_45_105
*1328 FILLER_45_111
*1329 FILLER_45_113
*1330 FILLER_45_125
*1331 FILLER_45_137
*1332 FILLER_45_149
*1333 FILLER_45_161
*1334 FILLER_45_167
*1335 FILLER_45_169
*1336 FILLER_45_181
*1337 FILLER_45_193
*1338 FILLER_45_205
*1339 FILLER_45_217
*1340 FILLER_45_22
*1341 FILLER_45_223
*1342 FILLER_45_225
*1343 FILLER_45_237
*1344 FILLER_45_249
*1345 FILLER_45_261
*1346 FILLER_45_273
*1347 FILLER_45_279
*1348 FILLER_45_281
*1349 FILLER_45_293
*1350 FILLER_45_3
*1351 FILLER_45_34
*1352 FILLER_45_46
*1353 FILLER_45_54
*1354 FILLER_45_57
*1355 FILLER_45_69
*1356 FILLER_45_81
*1357 FILLER_45_93
*1358 FILLER_46_109
*1359 FILLER_46_11
*1360 FILLER_46_121
*1361 FILLER_46_133
*1362 FILLER_46_139
*1363 FILLER_46_141
*1364 FILLER_46_153
*1365 FILLER_46_165
*1366 FILLER_46_177
*1367 FILLER_46_189
*1368 FILLER_46_195
*1369 FILLER_46_197
*1370 FILLER_46_209
*1371 FILLER_46_221
*1372 FILLER_46_23
*1373 FILLER_46_233
*1374 FILLER_46_245
*1375 FILLER_46_251
*1376 FILLER_46_253
*1377 FILLER_46_265
*1378 FILLER_46_27
*1379 FILLER_46_277
*1380 FILLER_46_289
*1381 FILLER_46_29
*1382 FILLER_46_297
*1383 FILLER_46_3
*1384 FILLER_46_41
*1385 FILLER_46_53
*1386 FILLER_46_65
*1387 FILLER_46_77
*1388 FILLER_46_83
*1389 FILLER_46_85
*1390 FILLER_46_97
*1391 FILLER_47_105
*1392 FILLER_47_111
*1393 FILLER_47_113
*1394 FILLER_47_125
*1395 FILLER_47_137
*1396 FILLER_47_149
*1397 FILLER_47_161
*1398 FILLER_47_167
*1399 FILLER_47_169
*1400 FILLER_47_181
*1401 FILLER_47_193
*1402 FILLER_47_205
*1403 FILLER_47_21
*1404 FILLER_47_217
*1405 FILLER_47_223
*1406 FILLER_47_225
*1407 FILLER_47_237
*1408 FILLER_47_249
*1409 FILLER_47_261
*1410 FILLER_47_273
*1411 FILLER_47_279
*1412 FILLER_47_281
*1413 FILLER_47_293
*1414 FILLER_47_3
*1415 FILLER_47_33
*1416 FILLER_47_45
*1417 FILLER_47_53
*1418 FILLER_47_57
*1419 FILLER_47_69
*1420 FILLER_47_81
*1421 FILLER_47_9
*1422 FILLER_47_93
*1423 FILLER_48_109
*1424 FILLER_48_121
*1425 FILLER_48_133
*1426 FILLER_48_139
*1427 FILLER_48_141
*1428 FILLER_48_15
*1429 FILLER_48_153
*1430 FILLER_48_165
*1431 FILLER_48_177
*1432 FILLER_48_189
*1433 FILLER_48_195
*1434 FILLER_48_197
*1435 FILLER_48_209
*1436 FILLER_48_221
*1437 FILLER_48_233
*1438 FILLER_48_245
*1439 FILLER_48_251
*1440 FILLER_48_253
*1441 FILLER_48_265
*1442 FILLER_48_27
*1443 FILLER_48_277
*1444 FILLER_48_289
*1445 FILLER_48_29
*1446 FILLER_48_297
*1447 FILLER_48_3
*1448 FILLER_48_41
*1449 FILLER_48_53
*1450 FILLER_48_65
*1451 FILLER_48_77
*1452 FILLER_48_83
*1453 FILLER_48_85
*1454 FILLER_48_97
*1455 FILLER_49_105
*1456 FILLER_49_111
*1457 FILLER_49_113
*1458 FILLER_49_125
*1459 FILLER_49_137
*1460 FILLER_49_149
*1461 FILLER_49_15
*1462 FILLER_49_161
*1463 FILLER_49_167
*1464 FILLER_49_169
*1465 FILLER_49_181
*1466 FILLER_49_193
*1467 FILLER_49_205
*1468 FILLER_49_217
*1469 FILLER_49_223
*1470 FILLER_49_225
*1471 FILLER_49_237
*1472 FILLER_49_249
*1473 FILLER_49_261
*1474 FILLER_49_27
*1475 FILLER_49_273
*1476 FILLER_49_279
*1477 FILLER_49_281
*1478 FILLER_49_293
*1479 FILLER_49_3
*1480 FILLER_49_39
*1481 FILLER_49_51
*1482 FILLER_49_55
*1483 FILLER_49_57
*1484 FILLER_49_69
*1485 FILLER_49_81
*1486 FILLER_49_93
*1487 FILLER_4_109
*1488 FILLER_4_121
*1489 FILLER_4_133
*1490 FILLER_4_139
*1491 FILLER_4_141
*1492 FILLER_4_153
*1493 FILLER_4_165
*1494 FILLER_4_177
*1495 FILLER_4_189
*1496 FILLER_4_195
*1497 FILLER_4_197
*1498 FILLER_4_209
*1499 FILLER_4_221
*1500 FILLER_4_233
*1501 FILLER_4_24
*1502 FILLER_4_245
*1503 FILLER_4_251
*1504 FILLER_4_253
*1505 FILLER_4_265
*1506 FILLER_4_277
*1507 FILLER_4_289
*1508 FILLER_4_297
*1509 FILLER_4_3
*1510 FILLER_4_45
*1511 FILLER_4_57
*1512 FILLER_4_69
*1513 FILLER_4_81
*1514 FILLER_4_85
*1515 FILLER_4_97
*1516 FILLER_50_109
*1517 FILLER_50_121
*1518 FILLER_50_133
*1519 FILLER_50_139
*1520 FILLER_50_141
*1521 FILLER_50_15
*1522 FILLER_50_153
*1523 FILLER_50_165
*1524 FILLER_50_177
*1525 FILLER_50_189
*1526 FILLER_50_195
*1527 FILLER_50_197
*1528 FILLER_50_209
*1529 FILLER_50_221
*1530 FILLER_50_233
*1531 FILLER_50_245
*1532 FILLER_50_251
*1533 FILLER_50_253
*1534 FILLER_50_265
*1535 FILLER_50_27
*1536 FILLER_50_277
*1537 FILLER_50_289
*1538 FILLER_50_29
*1539 FILLER_50_297
*1540 FILLER_50_3
*1541 FILLER_50_41
*1542 FILLER_50_53
*1543 FILLER_50_65
*1544 FILLER_50_77
*1545 FILLER_50_83
*1546 FILLER_50_85
*1547 FILLER_50_97
*1548 FILLER_51_105
*1549 FILLER_51_111
*1550 FILLER_51_113
*1551 FILLER_51_125
*1552 FILLER_51_137
*1553 FILLER_51_149
*1554 FILLER_51_15
*1555 FILLER_51_161
*1556 FILLER_51_167
*1557 FILLER_51_169
*1558 FILLER_51_181
*1559 FILLER_51_193
*1560 FILLER_51_205
*1561 FILLER_51_217
*1562 FILLER_51_223
*1563 FILLER_51_225
*1564 FILLER_51_237
*1565 FILLER_51_249
*1566 FILLER_51_261
*1567 FILLER_51_27
*1568 FILLER_51_273
*1569 FILLER_51_279
*1570 FILLER_51_281
*1571 FILLER_51_293
*1572 FILLER_51_3
*1573 FILLER_51_39
*1574 FILLER_51_51
*1575 FILLER_51_55
*1576 FILLER_51_57
*1577 FILLER_51_69
*1578 FILLER_51_81
*1579 FILLER_51_93
*1580 FILLER_52_109
*1581 FILLER_52_121
*1582 FILLER_52_133
*1583 FILLER_52_139
*1584 FILLER_52_141
*1585 FILLER_52_15
*1586 FILLER_52_153
*1587 FILLER_52_165
*1588 FILLER_52_177