*SPEF "ieee 1481-1999"
*DESIGN "user_module_349790606404354643"
*DATE "11:11:11 Fri 11 11, 1111"
*VENDOR "OpenRCX"
*PROGRAM "Parallel Extraction"
*VERSION "1.0"
*DESIGN_FLOW "NAME_SCOPE LOCAL" "PIN_CAP NONE"
*DIVIDER /
*DELIMITER :
*BUS_DELIMITER []
*T_UNIT 1 NS
*C_UNIT 1 PF
*R_UNIT 1 OHM
*L_UNIT 1 HENRY

*NAME_MAP
*1 io_in[0]
*2 io_in[1]
*3 io_in[2]
*4 io_in[3]
*5 io_in[4]
*6 io_in[5]
*7 io_in[6]
*8 io_in[7]
*9 io_out[0]
*10 io_out[1]
*11 io_out[2]
*12 io_out[3]
*13 io_out[4]
*14 io_out[5]
*15 io_out[6]
*16 io_out[7]
*19 _000_
*20 _001_
*21 _002_
*22 _003_
*23 _004_
*24 _005_
*25 _006_
*26 _007_
*27 _008_
*28 _009_
*29 _010_
*30 _011_
*31 _012_
*32 _013_
*33 _014_
*34 _015_
*35 _016_
*36 _017_
*37 _018_
*38 _019_
*39 _020_
*40 _021_
*41 _022_
*42 _023_
*43 _024_
*44 _025_
*45 _026_
*46 _027_
*47 _028_
*48 _029_
*49 _030_
*50 _031_
*51 _032_
*52 _033_
*53 _034_
*54 _035_
*55 _036_
*56 _037_
*57 _038_
*58 _039_
*59 _040_
*60 _041_
*61 _042_
*62 _043_
*63 _044_
*64 _045_
*65 _046_
*66 flipflop10\.d
*67 flipflop10\.q
*68 flipflop11\.q
*69 flipflop12\.q
*70 flipflop13\.q
*71 flipflop14\.q
*72 flipflop15\.q
*73 flipflop16\.q
*74 flipflop17\.q
*75 flipflop18\.d
*76 flipflop18\.q
*77 flipflop19\.d
*78 flipflop19\.q
*79 flipflop2\.q
*80 flipflop20\.d
*81 flipflop20\.q
*82 flipflop21\.d
*83 flipflop21\.q
*84 flipflop3\.q
*85 flipflop4\.q
*86 flipflop6\.q
*87 flipflop7\.q
*88 flipflop8\.q
*89 flipflop9\.q
*90 gate21\.a
*91 gate23\.out
*92 gate38\.out
*93 gate47\.out
*94 gate60\.out
*95 gate67\.out
*96 gate77\.out
*97 gate87\.out
*98 net1
*99 net10
*100 net11
*101 net2
*102 net3
*103 net4
*104 net5
*105 net6
*106 net7
*107 net8
*108 net9
*109 FILLER_0_109
*110 FILLER_0_113
*111 FILLER_0_125
*112 FILLER_0_137
*113 FILLER_0_141
*114 FILLER_0_153
*115 FILLER_0_165
*116 FILLER_0_169
*117 FILLER_0_181
*118 FILLER_0_193
*119 FILLER_0_197
*120 FILLER_0_209
*121 FILLER_0_21
*122 FILLER_0_221
*123 FILLER_0_225
*124 FILLER_0_237
*125 FILLER_0_249
*126 FILLER_0_253
*127 FILLER_0_265
*128 FILLER_0_27
*129 FILLER_0_277
*130 FILLER_0_281
*131 FILLER_0_29
*132 FILLER_0_293
*133 FILLER_0_3
*134 FILLER_0_41
*135 FILLER_0_53
*136 FILLER_0_57
*137 FILLER_0_69
*138 FILLER_0_81
*139 FILLER_0_85
*140 FILLER_0_9
*141 FILLER_0_97
*142 FILLER_10_109
*143 FILLER_10_121
*144 FILLER_10_13
*145 FILLER_10_133
*146 FILLER_10_139
*147 FILLER_10_141
*148 FILLER_10_153
*149 FILLER_10_165
*150 FILLER_10_177
*151 FILLER_10_189
*152 FILLER_10_195
*153 FILLER_10_197
*154 FILLER_10_209
*155 FILLER_10_221
*156 FILLER_10_233
*157 FILLER_10_245
*158 FILLER_10_25
*159 FILLER_10_251
*160 FILLER_10_253
*161 FILLER_10_265
*162 FILLER_10_277
*163 FILLER_10_289
*164 FILLER_10_29
*165 FILLER_10_297
*166 FILLER_10_3
*167 FILLER_10_41
*168 FILLER_10_53
*169 FILLER_10_65
*170 FILLER_10_77
*171 FILLER_10_83
*172 FILLER_10_85
*173 FILLER_10_97
*174 FILLER_11_105
*175 FILLER_11_111
*176 FILLER_11_113
*177 FILLER_11_125
*178 FILLER_11_137
*179 FILLER_11_149
*180 FILLER_11_161
*181 FILLER_11_167
*182 FILLER_11_169
*183 FILLER_11_181
*184 FILLER_11_19
*185 FILLER_11_193
*186 FILLER_11_205
*187 FILLER_11_217
*188 FILLER_11_223
*189 FILLER_11_225
*190 FILLER_11_237
*191 FILLER_11_249
*192 FILLER_11_261
*193 FILLER_11_273
*194 FILLER_11_279
*195 FILLER_11_281
*196 FILLER_11_293
*197 FILLER_11_31
*198 FILLER_11_43
*199 FILLER_11_55
*200 FILLER_11_57
*201 FILLER_11_69
*202 FILLER_11_81
*203 FILLER_11_93
*204 FILLER_12_109
*205 FILLER_12_121
*206 FILLER_12_133
*207 FILLER_12_139
*208 FILLER_12_141
*209 FILLER_12_153
*210 FILLER_12_165
*211 FILLER_12_177
*212 FILLER_12_189
*213 FILLER_12_19
*214 FILLER_12_195
*215 FILLER_12_197
*216 FILLER_12_209
*217 FILLER_12_221
*218 FILLER_12_233
*219 FILLER_12_245
*220 FILLER_12_251
*221 FILLER_12_253
*222 FILLER_12_265
*223 FILLER_12_27
*224 FILLER_12_277
*225 FILLER_12_289
*226 FILLER_12_297
*227 FILLER_12_45
*228 FILLER_12_57
*229 FILLER_12_69
*230 FILLER_12_81
*231 FILLER_12_85
*232 FILLER_12_97
*233 FILLER_13_105
*234 FILLER_13_111
*235 FILLER_13_113
*236 FILLER_13_125
*237 FILLER_13_137
*238 FILLER_13_149
*239 FILLER_13_161
*240 FILLER_13_167
*241 FILLER_13_169
*242 FILLER_13_181
*243 FILLER_13_193
*244 FILLER_13_205
*245 FILLER_13_217
*246 FILLER_13_223
*247 FILLER_13_225
*248 FILLER_13_237
*249 FILLER_13_249
*250 FILLER_13_261
*251 FILLER_13_273
*252 FILLER_13_279
*253 FILLER_13_281
*254 FILLER_13_29
*255 FILLER_13_293
*256 FILLER_13_3
*257 FILLER_13_36
*258 FILLER_13_43
*259 FILLER_13_55
*260 FILLER_13_57
*261 FILLER_13_69
*262 FILLER_13_81
*263 FILLER_13_9
*264 FILLER_13_93
*265 FILLER_14_109
*266 FILLER_14_121
*267 FILLER_14_133
*268 FILLER_14_139
*269 FILLER_14_141
*270 FILLER_14_153
*271 FILLER_14_165
*272 FILLER_14_177
*273 FILLER_14_189
*274 FILLER_14_195
*275 FILLER_14_197
*276 FILLER_14_20
*277 FILLER_14_209
*278 FILLER_14_221
*279 FILLER_14_233
*280 FILLER_14_245
*281 FILLER_14_251
*282 FILLER_14_253
*283 FILLER_14_265
*284 FILLER_14_277
*285 FILLER_14_289
*286 FILLER_14_297
*287 FILLER_14_3
*288 FILLER_14_45
*289 FILLER_14_57
*290 FILLER_14_69
*291 FILLER_14_81
*292 FILLER_14_85
*293 FILLER_14_97
*294 FILLER_15_105
*295 FILLER_15_111
*296 FILLER_15_113
*297 FILLER_15_125
*298 FILLER_15_137
*299 FILLER_15_14
*300 FILLER_15_149
*301 FILLER_15_161
*302 FILLER_15_167
*303 FILLER_15_169
*304 FILLER_15_181
*305 FILLER_15_193
*306 FILLER_15_205
*307 FILLER_15_217
*308 FILLER_15_223
*309 FILLER_15_225
*310 FILLER_15_237
*311 FILLER_15_249
*312 FILLER_15_261
*313 FILLER_15_273
*314 FILLER_15_279
*315 FILLER_15_281
*316 FILLER_15_293
*317 FILLER_15_38
*318 FILLER_15_50
*319 FILLER_15_57
*320 FILLER_15_6
*321 FILLER_15_69
*322 FILLER_15_81
*323 FILLER_15_93
*324 FILLER_16_109
*325 FILLER_16_121
*326 FILLER_16_133
*327 FILLER_16_139
*328 FILLER_16_141
*329 FILLER_16_153
*330 FILLER_16_165
*331 FILLER_16_177
*332 FILLER_16_189
*333 FILLER_16_195
*334 FILLER_16_197
*335 FILLER_16_209
*336 FILLER_16_221
*337 FILLER_16_233
*338 FILLER_16_24
*339 FILLER_16_245
*340 FILLER_16_251
*341 FILLER_16_253
*342 FILLER_16_265
*343 FILLER_16_277
*344 FILLER_16_289
*345 FILLER_16_29
*346 FILLER_16_297
*347 FILLER_16_3
*348 FILLER_16_51
*349 FILLER_16_63
*350 FILLER_16_7
*351 FILLER_16_75
*352 FILLER_16_83
*353 FILLER_16_85
*354 FILLER_16_97
*355 FILLER_17_105
*356 FILLER_17_111
*357 FILLER_17_113
*358 FILLER_17_125
*359 FILLER_17_137
*360 FILLER_17_149
*361 FILLER_17_161
*362 FILLER_17_167
*363 FILLER_17_169
*364 FILLER_17_181
*365 FILLER_17_19
*366 FILLER_17_193
*367 FILLER_17_205
*368 FILLER_17_217
*369 FILLER_17_223
*370 FILLER_17_225
*371 FILLER_17_237
*372 FILLER_17_249
*373 FILLER_17_26
*374 FILLER_17_261
*375 FILLER_17_273
*376 FILLER_17_279
*377 FILLER_17_281
*378 FILLER_17_293
*379 FILLER_17_34
*380 FILLER_17_52
*381 FILLER_17_57
*382 FILLER_17_69
*383 FILLER_17_81
*384 FILLER_17_93
*385 FILLER_18_109
*386 FILLER_18_121
*387 FILLER_18_133
*388 FILLER_18_139
*389 FILLER_18_141
*390 FILLER_18_15
*391 FILLER_18_153
*392 FILLER_18_165
*393 FILLER_18_177
*394 FILLER_18_189
*395 FILLER_18_195
*396 FILLER_18_197
*397 FILLER_18_209
*398 FILLER_18_221
*399 FILLER_18_233
*400 FILLER_18_245
*401 FILLER_18_251
*402 FILLER_18_253
*403 FILLER_18_265
*404 FILLER_18_27
*405 FILLER_18_277
*406 FILLER_18_289
*407 FILLER_18_29
*408 FILLER_18_297
*409 FILLER_18_3
*410 FILLER_18_41
*411 FILLER_18_45
*412 FILLER_18_62
*413 FILLER_18_74
*414 FILLER_18_82
*415 FILLER_18_85
*416 FILLER_18_97
*417 FILLER_19_105
*418 FILLER_19_111
*419 FILLER_19_113
*420 FILLER_19_12
*421 FILLER_19_125
*422 FILLER_19_137
*423 FILLER_19_149
*424 FILLER_19_161
*425 FILLER_19_167
*426 FILLER_19_169
*427 FILLER_19_181
*428 FILLER_19_193
*429 FILLER_19_205
*430 FILLER_19_217
*431 FILLER_19_223
*432 FILLER_19_225
*433 FILLER_19_237
*434 FILLER_19_24
*435 FILLER_19_249
*436 FILLER_19_261
*437 FILLER_19_273
*438 FILLER_19_279
*439 FILLER_19_281
*440 FILLER_19_293
*441 FILLER_19_36
*442 FILLER_19_48
*443 FILLER_19_57
*444 FILLER_19_69
*445 FILLER_19_81
*446 FILLER_19_93
*447 FILLER_1_105
*448 FILLER_1_111
*449 FILLER_1_113
*450 FILLER_1_125
*451 FILLER_1_137
*452 FILLER_1_149
*453 FILLER_1_161
*454 FILLER_1_167
*455 FILLER_1_169
*456 FILLER_1_181
*457 FILLER_1_19
*458 FILLER_1_193
*459 FILLER_1_205
*460 FILLER_1_217
*461 FILLER_1_223
*462 FILLER_1_225
*463 FILLER_1_237
*464 FILLER_1_249
*465 FILLER_1_261
*466 FILLER_1_273
*467 FILLER_1_279
*468 FILLER_1_281
*469 FILLER_1_293
*470 FILLER_1_31
*471 FILLER_1_43
*472 FILLER_1_55
*473 FILLER_1_57
*474 FILLER_1_69
*475 FILLER_1_81
*476 FILLER_1_93
*477 FILLER_20_109
*478 FILLER_20_121
*479 FILLER_20_133
*480 FILLER_20_139
*481 FILLER_20_141
*482 FILLER_20_153
*483 FILLER_20_165
*484 FILLER_20_177
*485 FILLER_20_18
*486 FILLER_20_189
*487 FILLER_20_195
*488 FILLER_20_197
*489 FILLER_20_209
*490 FILLER_20_221
*491 FILLER_20_233
*492 FILLER_20_245
*493 FILLER_20_251
*494 FILLER_20_253
*495 FILLER_20_26
*496 FILLER_20_265
*497 FILLER_20_277
*498 FILLER_20_289
*499 FILLER_20_29
*500 FILLER_20_297
*501 FILLER_20_41
*502 FILLER_20_53
*503 FILLER_20_6
*504 FILLER_20_71
*505 FILLER_20_83
*506 FILLER_20_85
*507 FILLER_20_97
*508 FILLER_21_105
*509 FILLER_21_11
*510 FILLER_21_111
*511 FILLER_21_113
*512 FILLER_21_125
*513 FILLER_21_137
*514 FILLER_21_149
*515 FILLER_21_161
*516 FILLER_21_167
*517 FILLER_21_169
*518 FILLER_21_181
*519 FILLER_21_193
*520 FILLER_21_205
*521 FILLER_21_21
*522 FILLER_21_217
*523 FILLER_21_223
*524 FILLER_21_225
*525 FILLER_21_237
*526 FILLER_21_249
*527 FILLER_21_261
*528 FILLER_21_273
*529 FILLER_21_279
*530 FILLER_21_281
*531 FILLER_21_293
*532 FILLER_21_3
*533 FILLER_21_34
*534 FILLER_21_46
*535 FILLER_21_54
*536 FILLER_21_57
*537 FILLER_21_69
*538 FILLER_21_81
*539 FILLER_21_93
*540 FILLER_22_109
*541 FILLER_22_121
*542 FILLER_22_133
*543 FILLER_22_139
*544 FILLER_22_141
*545 FILLER_22_153
*546 FILLER_22_165
*547 FILLER_22_177
*548 FILLER_22_189
*549 FILLER_22_195
*550 FILLER_22_197
*551 FILLER_22_209
*552 FILLER_22_221
*553 FILLER_22_233
*554 FILLER_22_24
*555 FILLER_22_245
*556 FILLER_22_251
*557 FILLER_22_253
*558 FILLER_22_265
*559 FILLER_22_277
*560 FILLER_22_289
*561 FILLER_22_297
*562 FILLER_22_3
*563 FILLER_22_38
*564 FILLER_22_42
*565 FILLER_22_59
*566 FILLER_22_71
*567 FILLER_22_83
*568 FILLER_22_85
*569 FILLER_22_97
*570 FILLER_23_105
*571 FILLER_23_111
*572 FILLER_23_113
*573 FILLER_23_125
*574 FILLER_23_137
*575 FILLER_23_149
*576 FILLER_23_15
*577 FILLER_23_161
*578 FILLER_23_167
*579 FILLER_23_169
*580 FILLER_23_181
*581 FILLER_23_193
*582 FILLER_23_205
*583 FILLER_23_217
*584 FILLER_23_223
*585 FILLER_23_225
*586 FILLER_23_23
*587 FILLER_23_237
*588 FILLER_23_249
*589 FILLER_23_261
*590 FILLER_23_273
*591 FILLER_23_279
*592 FILLER_23_281
*593 FILLER_23_293
*594 FILLER_23_3
*595 FILLER_23_35
*596 FILLER_23_52
*597 FILLER_23_57
*598 FILLER_23_69
*599 FILLER_23_81
*600 FILLER_23_93
*601 FILLER_24_109
*602 FILLER_24_121
*603 FILLER_24_13
*604 FILLER_24_133
*605 FILLER_24_139
*606 FILLER_24_141
*607 FILLER_24_153
*608 FILLER_24_165
*609 FILLER_24_177
*610 FILLER_24_189
*611 FILLER_24_195
*612 FILLER_24_197
*613 FILLER_24_209
*614 FILLER_24_221
*615 FILLER_24_233
*616 FILLER_24_245
*617 FILLER_24_25
*618 FILLER_24_251
*619 FILLER_24_253
*620 FILLER_24_265
*621 FILLER_24_277
*622 FILLER_24_289
*623 FILLER_24_29
*624 FILLER_24_297
*625 FILLER_24_41
*626 FILLER_24_52
*627 FILLER_24_76
*628 FILLER_24_85
*629 FILLER_24_97
*630 FILLER_25_102
*631 FILLER_25_110
*632 FILLER_25_113
*633 FILLER_25_125
*634 FILLER_25_137
*635 FILLER_25_149
*636 FILLER_25_15
*637 FILLER_25_161
*638 FILLER_25_167
*639 FILLER_25_169
*640 FILLER_25_181
*641 FILLER_25_193
*642 FILLER_25_205
*643 FILLER_25_217
*644 FILLER_25_223
*645 FILLER_25_225
*646 FILLER_25_237
*647 FILLER_25_249
*648 FILLER_25_261
*649 FILLER_25_27
*650 FILLER_25_273
*651 FILLER_25_279
*652 FILLER_25_281
*653 FILLER_25_293
*654 FILLER_25_3
*655 FILLER_25_39
*656 FILLER_25_43
*657 FILLER_25_47
*658 FILLER_25_55
*659 FILLER_25_66
*660 FILLER_25_90
*661 FILLER_26_109
*662 FILLER_26_121
*663 FILLER_26_133
*664 FILLER_26_139
*665 FILLER_26_141
*666 FILLER_26_15
*667 FILLER_26_153
*668 FILLER_26_165
*669 FILLER_26_177
*670 FILLER_26_189
*671 FILLER_26_195
*672 FILLER_26_197
*673 FILLER_26_209
*674 FILLER_26_221
*675 FILLER_26_233
*676 FILLER_26_245
*677 FILLER_26_251
*678 FILLER_26_253
*679 FILLER_26_265
*680 FILLER_26_27
*681 FILLER_26_277
*682 FILLER_26_289
*683 FILLER_26_29
*684 FILLER_26_297
*685 FILLER_26_3
*686 FILLER_26_41
*687 FILLER_26_53
*688 FILLER_26_61
*689 FILLER_26_72
*690 FILLER_26_85
*691 FILLER_26_97
*692 FILLER_27_111
*693 FILLER_27_113
*694 FILLER_27_125
*695 FILLER_27_137
*696 FILLER_27_149
*697 FILLER_27_15
*698 FILLER_27_161
*699 FILLER_27_167
*700 FILLER_27_169
*701 FILLER_27_181
*702 FILLER_27_193
*703 FILLER_27_205
*704 FILLER_27_217
*705 FILLER_27_223
*706 FILLER_27_225
*707 FILLER_27_237
*708 FILLER_27_249
*709 FILLER_27_261
*710 FILLER_27_27
*711 FILLER_27_273
*712 FILLER_27_279
*713 FILLER_27_281
*714 FILLER_27_293
*715 FILLER_27_52
*716 FILLER_27_57
*717 FILLER_27_69
*718 FILLER_27_7
*719 FILLER_27_87
*720 FILLER_27_99
*721 FILLER_28_101
*722 FILLER_28_113
*723 FILLER_28_125
*724 FILLER_28_137
*725 FILLER_28_141
*726 FILLER_28_153
*727 FILLER_28_165
*728 FILLER_28_177
*729 FILLER_28_189
*730 FILLER_28_195
*731 FILLER_28_197
*732 FILLER_28_209
*733 FILLER_28_221
*734 FILLER_28_233
*735 FILLER_28_24
*736 FILLER_28_245
*737 FILLER_28_251
*738 FILLER_28_253
*739 FILLER_28_265
*740 FILLER_28_277
*741 FILLER_28_289
*742 FILLER_28_297
*743 FILLER_28_3
*744 FILLER_28_38
*745 FILLER_28_63
*746 FILLER_28_80
*747 FILLER_29_105
*748 FILLER_29_111
*749 FILLER_29_113
*750 FILLER_29_125
*751 FILLER_29_137
*752 FILLER_29_149
*753 FILLER_29_15
*754 FILLER_29_161
*755 FILLER_29_167
*756 FILLER_29_169
*757 FILLER_29_181
*758 FILLER_29_193
*759 FILLER_29_205
*760 FILLER_29_217
*761 FILLER_29_223
*762 FILLER_29_225
*763 FILLER_29_237
*764 FILLER_29_249
*765 FILLER_29_261
*766 FILLER_29_27
*767 FILLER_29_273
*768 FILLER_29_279
*769 FILLER_29_281
*770 FILLER_29_293
*771 FILLER_29_3
*772 FILLER_29_35
*773 FILLER_29_41
*774 FILLER_29_53
*775 FILLER_29_57
*776 FILLER_29_69
*777 FILLER_29_81
*778 FILLER_29_93
*779 FILLER_2_109
*780 FILLER_2_121
*781 FILLER_2_133
*782 FILLER_2_139
*783 FILLER_2_141
*784 FILLER_2_15
*785 FILLER_2_153
*786 FILLER_2_165
*787 FILLER_2_177
*788 FILLER_2_189
*789 FILLER_2_195
*790 FILLER_2_197
*791 FILLER_2_209
*792 FILLER_2_221
*793 FILLER_2_233
*794 FILLER_2_245
*795 FILLER_2_251
*796 FILLER_2_253
*797 FILLER_2_265
*798 FILLER_2_27
*799 FILLER_2_277
*800 FILLER_2_289
*801 FILLER_2_29
*802 FILLER_2_297
*803 FILLER_2_3
*804 FILLER_2_41
*805 FILLER_2_53
*806 FILLER_2_65
*807 FILLER_2_77
*808 FILLER_2_83
*809 FILLER_2_85
*810 FILLER_2_97
*811 FILLER_30_109
*812 FILLER_30_121
*813 FILLER_30_133
*814 FILLER_30_139
*815 FILLER_30_141
*816 FILLER_30_15
*817 FILLER_30_153
*818 FILLER_30_165
*819 FILLER_30_177
*820 FILLER_30_189
*821 FILLER_30_195
*822 FILLER_30_197
*823 FILLER_30_209
*824 FILLER_30_221
*825 FILLER_30_233
*826 FILLER_30_245
*827 FILLER_30_251
*828 FILLER_30_253
*829 FILLER_30_265
*830 FILLER_30_27
*831 FILLER_30_277
*832 FILLER_30_289
*833 FILLER_30_29
*834 FILLER_30_297
*835 FILLER_30_3
*836 FILLER_30_44
*837 FILLER_30_69
*838 FILLER_30_81
*839 FILLER_30_85
*840 FILLER_30_97
*841 FILLER_31_105
*842 FILLER_31_111
*843 FILLER_31_113
*844 FILLER_31_125
*845 FILLER_31_137
*846 FILLER_31_149
*847 FILLER_31_15
*848 FILLER_31_161
*849 FILLER_31_167
*850 FILLER_31_169
*851 FILLER_31_181
*852 FILLER_31_193
*853 FILLER_31_205
*854 FILLER_31_217
*855 FILLER_31_22
*856 FILLER_31_223
*857 FILLER_31_225
*858 FILLER_31_237
*859 FILLER_31_249
*860 FILLER_31_261
*861 FILLER_31_273
*862 FILLER_31_279
*863 FILLER_31_281
*864 FILLER_31_293
*865 FILLER_31_3
*866 FILLER_31_34
*867 FILLER_31_46
*868 FILLER_31_54
*869 FILLER_31_57
*870 FILLER_31_69
*871 FILLER_31_81
*872 FILLER_31_93
*873 FILLER_32_109
*874 FILLER_32_11
*875 FILLER_32_121
*876 FILLER_32_133
*877 FILLER_32_139
*878 FILLER_32_141
*879 FILLER_32_153
*880 FILLER_32_165
*881 FILLER_32_177
*882 FILLER_32_189
*883 FILLER_32_195
*884 FILLER_32_197
*885 FILLER_32_209
*886 FILLER_32_221
*887 FILLER_32_233
*888 FILLER_32_24
*889 FILLER_32_245
*890 FILLER_32_251
*891 FILLER_32_253
*892 FILLER_32_265
*893 FILLER_32_277
*894 FILLER_32_289
*895 FILLER_32_29
*896 FILLER_32_297
*897 FILLER_32_3
*898 FILLER_32_41
*899 FILLER_32_53
*900 FILLER_32_65
*901 FILLER_32_7
*902 FILLER_32_77
*903 FILLER_32_83
*904 FILLER_32_85
*905 FILLER_32_97
*906 FILLER_33_105
*907 FILLER_33_111
*908 FILLER_33_113
*909 FILLER_33_125
*910 FILLER_33_137
*911 FILLER_33_149
*912 FILLER_33_161
*913 FILLER_33_167
*914 FILLER_33_169
*915 FILLER_33_181
*916 FILLER_33_19
*917 FILLER_33_193
*918 FILLER_33_205
*919 FILLER_33_217
*920 FILLER_33_223
*921 FILLER_33_225
*922 FILLER_33_237
*923 FILLER_33_249
*924 FILLER_33_261
*925 FILLER_33_273
*926 FILLER_33_279
*927 FILLER_33_281
*928 FILLER_33_293
*929 FILLER_33_3
*930 FILLER_33_37
*931 FILLER_33_41
*932 FILLER_33_52
*933 FILLER_33_57
*934 FILLER_33_69
*935 FILLER_33_81
*936 FILLER_33_9
*937 FILLER_33_93
*938 FILLER_34_109
*939 FILLER_34_121
*940 FILLER_34_133
*941 FILLER_34_139
*942 FILLER_34_141
*943 FILLER_34_153
*944 FILLER_34_165
*945 FILLER_34_177
*946 FILLER_34_189
*947 FILLER_34_195
*948 FILLER_34_197
*949 FILLER_34_209
*950 FILLER_34_21
*951 FILLER_34_221
*952 FILLER_34_233
*953 FILLER_34_245
*954 FILLER_34_251
*955 FILLER_34_253
*956 FILLER_34_265
*957 FILLER_34_27
*958 FILLER_34_277
*959 FILLER_34_289
*960 FILLER_34_29
*961 FILLER_34_297
*962 FILLER_34_3
*963 FILLER_34_37
*964 FILLER_34_59
*965 FILLER_34_71
*966 FILLER_34_83
*967 FILLER_34_85
*968 FILLER_34_97
*969 FILLER_35_108
*970 FILLER_35_113
*971 FILLER_35_125
*972 FILLER_35_137
*973 FILLER_35_149
*974 FILLER_35_161
*975 FILLER_35_167
*976 FILLER_35_169
*977 FILLER_35_17
*978 FILLER_35_181
*979 FILLER_35_193
*980 FILLER_35_205
*981 FILLER_35_217
*982 FILLER_35_223
*983 FILLER_35_225
*984 FILLER_35_237
*985 FILLER_35_249
*986 FILLER_35_25
*987 FILLER_35_261
*988 FILLER_35_273
*989 FILLER_35_279
*990 FILLER_35_281
*991 FILLER_35_293
*992 FILLER_35_3
*993 FILLER_35_31
*994 FILLER_35_43
*995 FILLER_35_55
*996 FILLER_35_57
*997 FILLER_35_65
*998 FILLER_35_72
*999 FILLER_35_84
*1000 FILLER_35_96
*1001 FILLER_36_109
*1002 FILLER_36_121
*1003 FILLER_36_133
*1004 FILLER_36_139
*1005 FILLER_36_141
*1006 FILLER_36_15
*1007 FILLER_36_153
*1008 FILLER_36_165
*1009 FILLER_36_177
*1010 FILLER_36_189
*1011 FILLER_36_195
*1012 FILLER_36_197
*1013 FILLER_36_209
*1014 FILLER_36_221
*1015 FILLER_36_233
*1016 FILLER_36_245
*1017 FILLER_36_251
*1018 FILLER_36_253
*1019 FILLER_36_265
*1020 FILLER_36_27
*1021 FILLER_36_277
*1022 FILLER_36_289
*1023 FILLER_36_297
*1024 FILLER_36_3
*1025 FILLER_36_32
*1026 FILLER_36_38
*1027 FILLER_36_46
*1028 FILLER_36_58
*1029 FILLER_36_70
*1030 FILLER_36_82
*1031 FILLER_36_85
*1032 FILLER_36_97
*1033 FILLER_37_105
*1034 FILLER_37_111
*1035 FILLER_37_113
*1036 FILLER_37_125
*1037 FILLER_37_137
*1038 FILLER_37_149
*1039 FILLER_37_15
*1040 FILLER_37_161
*1041 FILLER_37_167
*1042 FILLER_37_169
*1043 FILLER_37_181
*1044 FILLER_37_193
*1045 FILLER_37_205
*1046 FILLER_37_217
*1047 FILLER_37_22
*1048 FILLER_37_223
*1049 FILLER_37_225
*1050 FILLER_37_237
*1051 FILLER_37_249
*1052 FILLER_37_261
*1053 FILLER_37_273
*1054 FILLER_37_279
*1055 FILLER_37_281
*1056 FILLER_37_293
*1057 FILLER_37_3
*1058 FILLER_37_34
*1059 FILLER_37_46
*1060 FILLER_37_54
*1061 FILLER_37_57
*1062 FILLER_37_69
*1063 FILLER_37_81
*1064 FILLER_37_93
*1065 FILLER_38_109
*1066 FILLER_38_121
*1067 FILLER_38_133
*1068 FILLER_38_139
*1069 FILLER_38_141
*1070 FILLER_38_15
*1071 FILLER_38_153
*1072 FILLER_38_165
*1073 FILLER_38_177
*1074 FILLER_38_189
*1075 FILLER_38_195
*1076 FILLER_38_197
*1077 FILLER_38_209
*1078 FILLER_38_221
*1079 FILLER_38_233
*1080 FILLER_38_24
*1081 FILLER_38_245
*1082 FILLER_38_251
*1083 FILLER_38_253
*1084 FILLER_38_265
*1085 FILLER_38_277
*1086 FILLER_38_289
*1087 FILLER_38_297
*1088 FILLER_38_3
*1089 FILLER_38_32
*1090 FILLER_38_45
*1091 FILLER_38_57
*1092 FILLER_38_69
*1093 FILLER_38_81
*1094 FILLER_38_85
*1095 FILLER_38_97
*1096 FILLER_39_105
*1097 FILLER_39_11
*1098 FILLER_39_111
*1099 FILLER_39_113
*1100 FILLER_39_125
*1101 FILLER_39_137
*1102 FILLER_39_149
*1103 FILLER_39_15
*1104 FILLER_39_161
*1105 FILLER_39_167
*1106 FILLER_39_169
*1107 FILLER_39_181
*1108 FILLER_39_193
*1109 FILLER_39_205
*1110 FILLER_39_217
*1111 FILLER_39_223
*1112 FILLER_39_225
*1113 FILLER_39_237
*1114 FILLER_39_249
*1115 FILLER_39_261
*1116 FILLER_39_273
*1117 FILLER_39_279
*1118 FILLER_39_28
*1119 FILLER_39_281
*1120 FILLER_39_293
*1121 FILLER_39_3
*1122 FILLER_39_40
*1123 FILLER_39_50
*1124 FILLER_39_57
*1125 FILLER_39_69
*1126 FILLER_39_81
*1127 FILLER_39_93
*1128 FILLER_3_105
*1129 FILLER_3_111
*1130 FILLER_3_113
*1131 FILLER_3_125
*1132 FILLER_3_137
*1133 FILLER_3_149
*1134 FILLER_3_15
*1135 FILLER_3_161
*1136 FILLER_3_167
*1137 FILLER_3_169
*1138 FILLER_3_181
*1139 FILLER_3_193
*1140 FILLER_3_205
*1141 FILLER_3_217
*1142 FILLER_3_223
*1143 FILLER_3_225
*1144 FILLER_3_237
*1145 FILLER_3_249
*1146 FILLER_3_261
*1147 FILLER_3_27
*1148 FILLER_3_273
*1149 FILLER_3_279
*1150 FILLER_3_281
*1151 FILLER_3_293
*1152 FILLER_3_3
*1153 FILLER_3_39
*1154 FILLER_3_51
*1155 FILLER_3_55
*1156 FILLER_3_57
*1157 FILLER_3_69
*1158 FILLER_3_81
*1159 FILLER_3_93
*1160 FILLER_40_109
*1161 FILLER_40_121
*1162 FILLER_40_133
*1163 FILLER_40_139
*1164 FILLER_40_141
*1165 FILLER_40_153
*1166 FILLER_40_165
*1167 FILLER_40_17
*1168 FILLER_40_177
*1169 FILLER_40_189
*1170 FILLER_40_195
*1171 FILLER_40_197
*1172 FILLER_40_209
*1173 FILLER_40_221
*1174 FILLER_40_233
*1175 FILLER_40_24
*1176 FILLER_40_245
*1177 FILLER_40_251
*1178 FILLER_40_253
*1179 FILLER_40_265
*1180 FILLER_40_277
*1181 FILLER_40_289
*1182 FILLER_40_297
*1183 FILLER_40_3
*1184 FILLER_40_35
*1185 FILLER_40_39
*1186 FILLER_40_46
*1187 FILLER_40_61
*1188 FILLER_40_73
*1189 FILLER_40_81
*1190 FILLER_40_85
*1191 FILLER_40_9
*1192 FILLER_40_97
*1193 FILLER_41_105
*1194 FILLER_41_111
*1195 FILLER_41_113
*1196 FILLER_41_125
*1197 FILLER_41_137
*1198 FILLER_41_149
*1199 FILLER_41_15
*1200 FILLER_41_161
*1201 FILLER_41_167
*1202 FILLER_41_169
*1203 FILLER_41_181
*1204 FILLER_41_193
*1205 FILLER_41_205
*1206 FILLER_41_217
*1207 FILLER_41_22
*1208 FILLER_41_223
*1209 FILLER_41_225
*1210 FILLER_41_237
*1211 FILLER_41_249
*1212 FILLER_41_261
*1213 FILLER_41_273
*1214 FILLER_41_279
*1215 FILLER_41_281
*1216 FILLER_41_293
*1217 FILLER_41_3
*1218 FILLER_41_31
*1219 FILLER_41_43
*1220 FILLER_41_48
*1221 FILLER_41_57
*1222 FILLER_41_69
*1223 FILLER_41_81
*1224 FILLER_41_93
*1225 FILLER_42_109
*1226 FILLER_42_121
*1227 FILLER_42_133
*1228 FILLER_42_139
*1229 FILLER_42_141
*1230 FILLER_42_153
*1231 FILLER_42_165
*1232 FILLER_42_17
*1233 FILLER_42_177
*1234 FILLER_42_189
*1235 FILLER_42_195
*1236 FILLER_42_197
*1237 FILLER_42_209
*1238 FILLER_42_221
*1239 FILLER_42_233
*1240 FILLER_42_24
*1241 FILLER_42_245
*1242 FILLER_42_251
*1243 FILLER_42_253
*1244 FILLER_42_265
*1245 FILLER_42_277
*1246 FILLER_42_289
*1247 FILLER_42_297
*1248 FILLER_42_3
*1249 FILLER_42_35
*1250 FILLER_42_47
*1251 FILLER_42_59
*1252 FILLER_42_71
*1253 FILLER_42_83
*1254 FILLER_42_85
*1255 FILLER_42_9
*1256 FILLER_42_97
*1257 FILLER_43_105
*1258 FILLER_43_111
*1259 FILLER_43_113
*1260 FILLER_43_125
*1261 FILLER_43_13
*1262 FILLER_43_137
*1263 FILLER_43_149
*1264 FILLER_43_161
*1265 FILLER_43_167
*1266 FILLER_43_169
*1267 FILLER_43_17
*1268 FILLER_43_181
*1269 FILLER_43_193
*1270 FILLER_43_205
*1271 FILLER_43_217
*1272 FILLER_43_223
*1273 FILLER_43_225
*1274 FILLER_43_237
*1275 FILLER_43_24
*1276 FILLER_43_249
*1277 FILLER_43_261
*1278 FILLER_43_273
*1279 FILLER_43_279
*1280 FILLER_43_281
*1281 FILLER_43_293
*1282 FILLER_43_3
*1283 FILLER_43_45
*1284 FILLER_43_53
*1285 FILLER_43_57
*1286 FILLER_43_69
*1287 FILLER_43_81
*1288 FILLER_43_9
*1289 FILLER_43_93
*1290 FILLER_44_109
*1291 FILLER_44_121
*1292 FILLER_44_133
*1293 FILLER_44_139
*1294 FILLER_44_141
*1295 FILLER_44_153
*1296 FILLER_44_165
*1297 FILLER_44_17
*1298 FILLER_44_177
*1299 FILLER_44_189
*1300 FILLER_44_195
*1301 FILLER_44_197
*1302 FILLER_44_209
*1303 FILLER_44_221
*1304 FILLER_44_233
*1305 FILLER_44_245
*1306 FILLER_44_25
*1307 FILLER_44_251
*1308 FILLER_44_253
*1309 FILLER_44_265
*1310 FILLER_44_277
*1311 FILLER_44_289
*1312 FILLER_44_29
*1313 FILLER_44_297
*1314 FILLER_44_3
*1315 FILLER_44_41
*1316 FILLER_44_53
*1317 FILLER_44_65
*1318 FILLER_44_77
*1319 FILLER_44_83
*1320 FILLER_44_85
*1321 FILLER_44_9
*1322 FILLER_44_97
*1323 FILLER_45_105
*1324 FILLER_45_111
*1325 FILLER_45_113
*1326 FILLER_45_125
*1327 FILLER_45_137
*1328 FILLER_45_149
*1329 FILLER_45_15
*1330 FILLER_45_161
*1331 FILLER_45_167
*1332 FILLER_45_169
*1333 FILLER_45_181
*1334 FILLER_45_193
*1335 FILLER_45_205
*1336 FILLER_45_217
*1337 FILLER_45_223
*1338 FILLER_45_225
*1339 FILLER_45_237
*1340 FILLER_45_249
*1341 FILLER_45_261
*1342 FILLER_45_27
*1343 FILLER_45_273
*1344 FILLER_45_279
*1345 FILLER_45_281
*1346 FILLER_45_293
*1347 FILLER_45_3
*1348 FILLER_45_39
*1349 FILLER_45_51
*1350 FILLER_45_55
*1351 FILLER_45_57
*1352 FILLER_45_69
*1353 FILLER_45_81
*1354 FILLER_45_93
*1355 FILLER_46_109
*1356 FILLER_46_121
*1357 FILLER_46_133
*1358 FILLER_46_139
*1359 FILLER_46_141
*1360 FILLER_46_15
*1361 FILLER_46_153
*1362 FILLER_46_165
*1363 FILLER_46_177
*1364 FILLER_46_189
*1365 FILLER_46_195
*1366 FILLER_46_197
*1367 FILLER_46_209
*1368 FILLER_46_221
*1369 FILLER_46_233
*1370 FILLER_46_245
*1371 FILLER_46_251
*1372 FILLER_46_253
*1373 FILLER_46_265
*1374 FILLER_46_27
*1375 FILLER_46_277
*1376 FILLER_46_289
*1377 FILLER_46_29
*1378 FILLER_46_297
*1379 FILLER_46_3
*1380 FILLER_46_41
*1381 FILLER_46_53
*1382 FILLER_46_65
*1383 FILLER_46_77
*1384 FILLER_46_83
*1385 FILLER_46_85
*1386 FILLER_46_97
*1387 FILLER_47_105
*1388 FILLER_47_111
*1389 FILLER_47_113
*1390 FILLER_47_125
*1391 FILLER_47_137
*1392 FILLER_47_149
*1393 FILLER_47_15
*1394 FILLER_47_161
*1395 FILLER_47_167
*1396 FILLER_47_169
*1397 FILLER_47_181
*1398 FILLER_47_193
*1399 FILLER_47_205
*1400 FILLER_47_217
*1401 FILLER_47_223
*1402 FILLER_47_225
*1403 FILLER_47_237
*1404 FILLER_47_249
*1405 FILLER_47_261
*1406 FILLER_47_27
*1407 FILLER_47_273
*1408 FILLER_47_279
*1409 FILLER_47_281
*1410 FILLER_47_293
*1411 FILLER_47_3
*1412 FILLER_47_39
*1413 FILLER_47_51
*1414 FILLER_47_55
*1415 FILLER_47_57
*1416 FILLER_47_69
*1417 FILLER_47_81
*1418 FILLER_47_93
*1419 FILLER_48_109
*1420 FILLER_48_121
*1421 FILLER_48_133
*1422 FILLER_48_139
*1423 FILLER_48_141
*1424 FILLER_48_15
*1425 FILLER_48_153
*1426 FILLER_48_165
*1427 FILLER_48_177
*1428 FILLER_48_189
*1429 FILLER_48_195
*1430 FILLER_48_197
*1431 FILLER_48_209
*1432 FILLER_48_221
*1433 FILLER_48_233
*1434 FILLER_48_245
*1435 FILLER_48_251
*1436 FILLER_48_253
*1437 FILLER_48_265
*1438 FILLER_48_27
*1439 FILLER_48_277
*1440 FILLER_48_289
*1441 FILLER_48_29
*1442 FILLER_48_297
*1443 FILLER_48_3
*1444 FILLER_48_41
*1445 FILLER_48_53
*1446 FILLER_48_65
*1447 FILLER_48_77
*1448 FILLER_48_83
*1449 FILLER_48_85
*1450 FILLER_48_97
*1451 FILLER_49_105
*1452 FILLER_49_111
*1453 FILLER_49_113
*1454 FILLER_49_125
*1455 FILLER_49_137
*1456 FILLER_49_149
*1457 FILLER_49_15
*1458 FILLER_49_161
*1459 FILLER_49_167
*1460 FILLER_49_169
*1461 FILLER_49_181
*1462 FILLER_49_193
*1463 FILLER_49_205
*1464 FILLER_49_217
*1465 FILLER_49_223
*1466 FILLER_49_225
*1467 FILLER_49_237
*1468 FILLER_49_249
*1469 FILLER_49_261
*1470 FILLER_49_27
*1471 FILLER_49_273
*1472 FILLER_49_279
*1473 FILLER_49_281
*1474 FILLER_49_293
*1475 FILLER_49_3
*1476 FILLER_49_39
*1477 FILLER_49_51
*1478 FILLER_49_55
*1479 FILLER_49_57
*1480 FILLER_49_69
*1481 FILLER_49_81
*1482 FILLER_49_93
*1483 FILLER_4_109
*1484 FILLER_4_121
*1485 FILLER_4_133
*1486 FILLER_4_139
*1487 FILLER_4_141
*1488 FILLER_4_15
*1489 FILLER_4_153
*1490 FILLER_4_165
*1491 FILLER_4_177
*1492 FILLER_4_189
*1493 FILLER_4_195
*1494 FILLER_4_197
*1495 FILLER_4_209
*1496 FILLER_4_221
*1497 FILLER_4_233
*1498 FILLER_4_245
*1499 FILLER_4_251
*1500 FILLER_4_253
*1501 FILLER_4_265
*1502 FILLER_4_27
*1503 FILLER_4_277
*1504 FILLER_4_289
*1505 FILLER_4_29
*1506 FILLER_4_297
*1507 FILLER_4_3
*1508 FILLER_4_41
*1509 FILLER_4_53
*1510 FILLER_4_65
*1511 FILLER_4_77
*1512 FILLER_4_83
*1513 FILLER_4_85
*1514 FILLER_4_97
*1515 FILLER_50_109
*1516 FILLER_50_121
*1517 FILLER_50_133
*1518 FILLER_50_139
*1519 FILLER_50_141
*1520 FILLER_50_15
*1521 FILLER_50_153
*1522 FILLER_50_165
*1523 FILLER_50_177
*1524 FILLER_50_189
*1525 FILLER_50_195
*1526 FILLER_50_197
*1527 FILLER_50_209
*1528 FILLER_50_221
*1529 FILLER_50_233
*1530 FILLER_50_245
*1531 FILLER_50_251
*1532 FILLER_50_253
*1533 FILLER_50_265
*1534 FILLER_50_27
*1535 FILLER_50_277
*1536 FILLER_50_289
*1537 FILLER_50_29
*1538 FILLER_50_297
*1539 FILLER_50_3
*1540 FILLER_50_41
*1541 FILLER_50_53
*1542 FILLER_50_65
*1543 FILLER_50_77
*1544 FILLER_50_83
*1545 FILLER_50_85
*1546 FILLER_50_97
*1547 FILLER_51_105
*1548 FILLER_51_111
*1549 FILLER_51_113
*1550 FILLER_51_125
*1551 FILLER_51_137
*1552 FILLER_51_149
*1553 FILLER_51_15
*1554 FILLER_51_161
*1555 FILLER_51_167
*1556 FILLER_51_169
*1557 FILLER_51_181
*1558 FILLER_51_193
*1559 FILLER_51_205
*1560 FILLER_51_217
*1561 FILLER_51_223
*1562 FILLER_51_225
*1563 FILLER_51_237
*1564 FILLER_51_249
*1565 FILLER_51_261
*1566 FILLER_51_27
*1567 FILLER_51_273
*1568 FILLER_51_279
*1569 FILLER_51_281
*1570 FILLER_51_293
*1571 FILLER_51_3
*1572 FILLER_51_39
*1573 FILLER_51_51
*1574 FILLER_51_55
*1575 FILLER_51_57
*1576 FILLER_51_69
*1577 FILLER_51_81
*1578 FILLER_51_93
*1579 FILLER_52_109
*1580 FILLER_52_121
*1581 FILLER_52_133
*1582 FILLER_52_139
*1583 FILLER_52_141
*1584 FILLER_52_15
*1585 FILLER_52_153
*1586 FILLER_52_165
*1587 FILLER_52_177
*1588 FILLER_52_189
*1589 FILLER_52_195
*1590 FILLER_52_197
*1591 FILLER_52_209
*1592 FILLER_52_221
*1593 FILLER_52_233
*1594 FILLER_52_245
*1595 FILLER_52_251
*1596 FILLER_52_253
*1597 FILLER_52_265
*1598 FILLER_52_27
*1599 FILLER_52_277
*1600 FILLER_52_289
*1601 FILLER_52_29
*1602 FILLER_52_297
*1603 FILLER_52_3