*SPEF "ieee 1481-1999"
*DESIGN "user_module_341678527574180436"
*DATE "11:11:11 Fri 11 11, 1111"
*VENDOR "OpenRCX"
*PROGRAM "Parallel Extraction"
*VERSION "1.0"
*DESIGN_FLOW "NAME_SCOPE LOCAL" "PIN_CAP NONE"
*DIVIDER /
*DELIMITER :
*BUS_DELIMITER []
*T_UNIT 1 NS
*C_UNIT 1 PF
*R_UNIT 1 OHM
*L_UNIT 1 HENRY

*NAME_MAP
*1 io_in[0]
*2 io_in[1]
*3 io_in[2]
*4 io_in[3]
*5 io_in[4]
*6 io_in[5]
*7 io_in[6]
*8 io_in[7]
*9 io_out[0]
*10 net7
*11 net8
*12 net9
*13 net3
*14 net4
*15 net5
*16 net6
*19 _00_
*20 gate1\.out
*21 net1
*22 net2
*23 FILLER_0_109
*24 FILLER_0_113
*25 FILLER_0_125
*26 FILLER_0_137
*27 FILLER_0_141
*28 FILLER_0_15
*29 FILLER_0_153
*30 FILLER_0_165
*31 FILLER_0_169
*32 FILLER_0_181
*33 FILLER_0_193
*34 FILLER_0_197
*35 FILLER_0_209
*36 FILLER_0_221
*37 FILLER_0_225
*38 FILLER_0_237
*39 FILLER_0_249
*40 FILLER_0_253
*41 FILLER_0_265
*42 FILLER_0_27
*43 FILLER_0_277
*44 FILLER_0_281
*45 FILLER_0_29
*46 FILLER_0_293
*47 FILLER_0_3
*48 FILLER_0_41
*49 FILLER_0_53
*50 FILLER_0_57
*51 FILLER_0_69
*52 FILLER_0_81
*53 FILLER_0_85
*54 FILLER_0_97
*55 FILLER_10_109
*56 FILLER_10_121
*57 FILLER_10_133
*58 FILLER_10_139
*59 FILLER_10_141
*60 FILLER_10_153
*61 FILLER_10_165
*62 FILLER_10_177
*63 FILLER_10_189
*64 FILLER_10_195
*65 FILLER_10_197
*66 FILLER_10_209
*67 FILLER_10_21
*68 FILLER_10_221
*69 FILLER_10_233
*70 FILLER_10_245
*71 FILLER_10_251
*72 FILLER_10_253
*73 FILLER_10_265
*74 FILLER_10_27
*75 FILLER_10_277
*76 FILLER_10_289
*77 FILLER_10_29
*78 FILLER_10_297
*79 FILLER_10_3
*80 FILLER_10_41
*81 FILLER_10_53
*82 FILLER_10_65
*83 FILLER_10_77
*84 FILLER_10_83
*85 FILLER_10_85
*86 FILLER_10_9
*87 FILLER_10_97
*88 FILLER_11_105
*89 FILLER_11_111
*90 FILLER_11_113
*91 FILLER_11_125
*92 FILLER_11_137
*93 FILLER_11_149
*94 FILLER_11_15
*95 FILLER_11_161
*96 FILLER_11_167
*97 FILLER_11_169
*98 FILLER_11_181
*99 FILLER_11_193
*100 FILLER_11_205
*101 FILLER_11_217
*102 FILLER_11_223
*103 FILLER_11_225
*104 FILLER_11_237
*105 FILLER_11_249
*106 FILLER_11_261
*107 FILLER_11_27
*108 FILLER_11_273
*109 FILLER_11_279
*110 FILLER_11_281
*111 FILLER_11_293
*112 FILLER_11_3
*113 FILLER_11_39
*114 FILLER_11_51
*115 FILLER_11_55
*116 FILLER_11_57
*117 FILLER_11_69
*118 FILLER_11_81
*119 FILLER_11_93
*120 FILLER_12_109
*121 FILLER_12_121
*122 FILLER_12_133
*123 FILLER_12_139
*124 FILLER_12_141
*125 FILLER_12_15
*126 FILLER_12_153
*127 FILLER_12_165
*128 FILLER_12_177
*129 FILLER_12_189
*130 FILLER_12_195
*131 FILLER_12_197
*132 FILLER_12_209
*133 FILLER_12_221
*134 FILLER_12_233
*135 FILLER_12_245
*136 FILLER_12_251
*137 FILLER_12_253
*138 FILLER_12_265
*139 FILLER_12_27
*140 FILLER_12_277
*141 FILLER_12_289
*142 FILLER_12_29
*143 FILLER_12_297
*144 FILLER_12_3
*145 FILLER_12_41
*146 FILLER_12_53
*147 FILLER_12_65
*148 FILLER_12_77
*149 FILLER_12_83
*150 FILLER_12_85
*151 FILLER_12_97
*152 FILLER_13_105
*153 FILLER_13_111
*154 FILLER_13_113
*155 FILLER_13_125
*156 FILLER_13_137
*157 FILLER_13_149
*158 FILLER_13_15
*159 FILLER_13_161
*160 FILLER_13_167
*161 FILLER_13_169
*162 FILLER_13_181
*163 FILLER_13_193
*164 FILLER_13_205
*165 FILLER_13_217
*166 FILLER_13_223
*167 FILLER_13_225
*168 FILLER_13_237
*169 FILLER_13_249
*170 FILLER_13_261
*171 FILLER_13_27
*172 FILLER_13_273
*173 FILLER_13_279
*174 FILLER_13_281
*175 FILLER_13_293
*176 FILLER_13_3
*177 FILLER_13_39
*178 FILLER_13_51
*179 FILLER_13_55
*180 FILLER_13_57
*181 FILLER_13_69
*182 FILLER_13_81
*183 FILLER_13_93
*184 FILLER_14_109
*185 FILLER_14_121
*186 FILLER_14_133
*187 FILLER_14_139
*188 FILLER_14_141
*189 FILLER_14_153
*190 FILLER_14_165
*191 FILLER_14_177
*192 FILLER_14_189
*193 FILLER_14_195
*194 FILLER_14_197
*195 FILLER_14_20
*196 FILLER_14_209
*197 FILLER_14_221
*198 FILLER_14_233
*199 FILLER_14_245
*200 FILLER_14_251
*201 FILLER_14_253
*202 FILLER_14_265
*203 FILLER_14_277
*204 FILLER_14_289
*205 FILLER_14_29
*206 FILLER_14_297
*207 FILLER_14_3
*208 FILLER_14_41
*209 FILLER_14_53
*210 FILLER_14_65
*211 FILLER_14_77
*212 FILLER_14_8
*213 FILLER_14_83
*214 FILLER_14_85
*215 FILLER_14_97
*216 FILLER_15_105
*217 FILLER_15_111
*218 FILLER_15_113
*219 FILLER_15_125
*220 FILLER_15_137
*221 FILLER_15_149
*222 FILLER_15_15
*223 FILLER_15_161
*224 FILLER_15_167
*225 FILLER_15_169
*226 FILLER_15_181
*227 FILLER_15_193
*228 FILLER_15_205
*229 FILLER_15_217
*230 FILLER_15_223
*231 FILLER_15_225
*232 FILLER_15_237
*233 FILLER_15_249
*234 FILLER_15_261
*235 FILLER_15_27
*236 FILLER_15_273
*237 FILLER_15_279
*238 FILLER_15_281
*239 FILLER_15_293
*240 FILLER_15_3
*241 FILLER_15_39
*242 FILLER_15_51
*243 FILLER_15_55
*244 FILLER_15_57
*245 FILLER_15_69
*246 FILLER_15_81
*247 FILLER_15_93
*248 FILLER_16_109
*249 FILLER_16_121
*250 FILLER_16_133
*251 FILLER_16_139
*252 FILLER_16_141
*253 FILLER_16_15
*254 FILLER_16_153
*255 FILLER_16_165
*256 FILLER_16_177
*257 FILLER_16_189
*258 FILLER_16_195
*259 FILLER_16_197
*260 FILLER_16_209
*261 FILLER_16_221
*262 FILLER_16_233
*263 FILLER_16_245
*264 FILLER_16_251
*265 FILLER_16_253
*266 FILLER_16_265
*267 FILLER_16_27
*268 FILLER_16_277
*269 FILLER_16_289
*270 FILLER_16_29
*271 FILLER_16_297
*272 FILLER_16_3
*273 FILLER_16_41
*274 FILLER_16_53
*275 FILLER_16_65
*276 FILLER_16_77
*277 FILLER_16_83
*278 FILLER_16_85
*279 FILLER_16_97
*280 FILLER_17_105
*281 FILLER_17_111
*282 FILLER_17_113
*283 FILLER_17_125
*284 FILLER_17_137
*285 FILLER_17_149
*286 FILLER_17_15
*287 FILLER_17_161
*288 FILLER_17_167
*289 FILLER_17_169
*290 FILLER_17_181
*291 FILLER_17_193
*292 FILLER_17_205
*293 FILLER_17_217
*294 FILLER_17_223
*295 FILLER_17_225
*296 FILLER_17_237
*297 FILLER_17_249
*298 FILLER_17_261
*299 FILLER_17_27
*300 FILLER_17_273
*301 FILLER_17_279
*302 FILLER_17_281
*303 FILLER_17_293
*304 FILLER_17_3
*305 FILLER_17_39
*306 FILLER_17_51
*307 FILLER_17_55
*308 FILLER_17_57
*309 FILLER_17_69
*310 FILLER_17_81
*311 FILLER_17_93
*312 FILLER_18_109
*313 FILLER_18_121
*314 FILLER_18_133
*315 FILLER_18_139
*316 FILLER_18_141
*317 FILLER_18_153
*318 FILLER_18_165
*319 FILLER_18_177
*320 FILLER_18_189
*321 FILLER_18_195
*322 FILLER_18_197
*323 FILLER_18_209
*324 FILLER_18_21
*325 FILLER_18_221
*326 FILLER_18_233
*327 FILLER_18_245
*328 FILLER_18_251
*329 FILLER_18_253
*330 FILLER_18_265
*331 FILLER_18_27
*332 FILLER_18_277
*333 FILLER_18_289
*334 FILLER_18_29
*335 FILLER_18_297
*336 FILLER_18_3
*337 FILLER_18_41
*338 FILLER_18_53
*339 FILLER_18_65
*340 FILLER_18_77
*341 FILLER_18_83
*342 FILLER_18_85
*343 FILLER_18_9
*344 FILLER_18_97
*345 FILLER_19_105
*346 FILLER_19_111
*347 FILLER_19_113
*348 FILLER_19_125
*349 FILLER_19_137
*350 FILLER_19_149
*351 FILLER_19_15
*352 FILLER_19_161
*353 FILLER_19_167
*354 FILLER_19_169
*355 FILLER_19_181
*356 FILLER_19_193
*357 FILLER_19_205
*358 FILLER_19_217
*359 FILLER_19_223
*360 FILLER_19_225
*361 FILLER_19_237
*362 FILLER_19_249
*363 FILLER_19_261
*364 FILLER_19_27
*365 FILLER_19_273
*366 FILLER_19_279
*367 FILLER_19_281
*368 FILLER_19_293
*369 FILLER_19_3
*370 FILLER_19_39
*371 FILLER_19_51
*372 FILLER_19_55
*373 FILLER_19_57
*374 FILLER_19_69
*375 FILLER_19_81
*376 FILLER_19_93
*377 FILLER_1_105
*378 FILLER_1_111
*379 FILLER_1_113
*380 FILLER_1_125
*381 FILLER_1_137
*382 FILLER_1_149
*383 FILLER_1_15
*384 FILLER_1_161
*385 FILLER_1_167
*386 FILLER_1_169
*387 FILLER_1_181
*388 FILLER_1_193
*389 FILLER_1_205
*390 FILLER_1_217
*391 FILLER_1_223
*392 FILLER_1_225
*393 FILLER_1_237
*394 FILLER_1_249
*395 FILLER_1_261
*396 FILLER_1_27
*397 FILLER_1_273
*398 FILLER_1_279
*399 FILLER_1_281
*400 FILLER_1_293
*401 FILLER_1_3
*402 FILLER_1_39
*403 FILLER_1_51
*404 FILLER_1_55
*405 FILLER_1_57
*406 FILLER_1_69
*407 FILLER_1_81
*408 FILLER_1_93
*409 FILLER_20_109
*410 FILLER_20_121
*411 FILLER_20_133
*412 FILLER_20_139
*413 FILLER_20_141
*414 FILLER_20_15
*415 FILLER_20_153
*416 FILLER_20_165
*417 FILLER_20_177
*418 FILLER_20_189
*419 FILLER_20_195
*420 FILLER_20_197
*421 FILLER_20_209
*422 FILLER_20_221
*423 FILLER_20_233
*424 FILLER_20_245
*425 FILLER_20_251
*426 FILLER_20_253
*427 FILLER_20_265
*428 FILLER_20_27
*429 FILLER_20_277
*430 FILLER_20_289
*431 FILLER_20_29
*432 FILLER_20_297
*433 FILLER_20_3
*434 FILLER_20_41
*435 FILLER_20_53
*436 FILLER_20_65
*437 FILLER_20_77
*438 FILLER_20_83
*439 FILLER_20_85
*440 FILLER_20_97
*441 FILLER_21_105
*442 FILLER_21_111
*443 FILLER_21_113
*444 FILLER_21_125
*445 FILLER_21_137
*446 FILLER_21_149
*447 FILLER_21_15
*448 FILLER_21_161
*449 FILLER_21_167
*450 FILLER_21_169
*451 FILLER_21_181
*452 FILLER_21_193
*453 FILLER_21_205
*454 FILLER_21_217
*455 FILLER_21_223
*456 FILLER_21_225
*457 FILLER_21_237
*458 FILLER_21_249
*459 FILLER_21_261
*460 FILLER_21_27
*461 FILLER_21_273
*462 FILLER_21_279
*463 FILLER_21_281
*464 FILLER_21_293
*465 FILLER_21_3
*466 FILLER_21_39
*467 FILLER_21_51
*468 FILLER_21_55
*469 FILLER_21_57
*470 FILLER_21_69
*471 FILLER_21_81
*472 FILLER_21_93
*473 FILLER_22_109
*474 FILLER_22_121
*475 FILLER_22_133
*476 FILLER_22_139
*477 FILLER_22_141
*478 FILLER_22_15
*479 FILLER_22_153
*480 FILLER_22_165
*481 FILLER_22_177
*482 FILLER_22_189
*483 FILLER_22_195
*484 FILLER_22_197
*485 FILLER_22_209
*486 FILLER_22_221
*487 FILLER_22_233
*488 FILLER_22_245
*489 FILLER_22_251
*490 FILLER_22_253
*491 FILLER_22_265
*492 FILLER_22_27
*493 FILLER_22_277
*494 FILLER_22_289
*495 FILLER_22_29
*496 FILLER_22_297
*497 FILLER_22_3
*498 FILLER_22_41
*499 FILLER_22_53
*500 FILLER_22_65
*501 FILLER_22_77
*502 FILLER_22_83
*503 FILLER_22_85
*504 FILLER_22_97
*505 FILLER_23_105
*506 FILLER_23_111
*507 FILLER_23_113
*508 FILLER_23_125
*509 FILLER_23_137
*510 FILLER_23_149
*511 FILLER_23_15
*512 FILLER_23_161
*513 FILLER_23_167
*514 FILLER_23_169
*515 FILLER_23_181
*516 FILLER_23_193
*517 FILLER_23_205
*518 FILLER_23_217
*519 FILLER_23_223
*520 FILLER_23_225
*521 FILLER_23_237
*522 FILLER_23_249
*523 FILLER_23_261
*524 FILLER_23_27
*525 FILLER_23_273
*526 FILLER_23_279
*527 FILLER_23_281
*528 FILLER_23_293
*529 FILLER_23_3
*530 FILLER_23_39
*531 FILLER_23_51
*532 FILLER_23_55
*533 FILLER_23_57
*534 FILLER_23_69
*535 FILLER_23_81
*536 FILLER_23_93
*537 FILLER_24_109
*538 FILLER_24_121
*539 FILLER_24_133
*540 FILLER_24_139
*541 FILLER_24_141
*542 FILLER_24_15
*543 FILLER_24_153
*544 FILLER_24_165
*545 FILLER_24_177
*546 FILLER_24_189
*547 FILLER_24_195
*548 FILLER_24_197
*549 FILLER_24_209
*550 FILLER_24_221
*551 FILLER_24_233
*552 FILLER_24_245
*553 FILLER_24_251
*554 FILLER_24_253
*555 FILLER_24_265
*556 FILLER_24_27
*557 FILLER_24_277
*558 FILLER_24_289
*559 FILLER_24_29
*560 FILLER_24_297
*561 FILLER_24_3
*562 FILLER_24_41
*563 FILLER_24_53
*564 FILLER_24_65
*565 FILLER_24_77
*566 FILLER_24_83
*567 FILLER_24_85
*568 FILLER_24_97
*569 FILLER_25_105
*570 FILLER_25_111
*571 FILLER_25_113
*572 FILLER_25_125
*573 FILLER_25_137
*574 FILLER_25_149
*575 FILLER_25_15
*576 FILLER_25_161
*577 FILLER_25_167
*578 FILLER_25_169
*579 FILLER_25_181
*580 FILLER_25_193
*581 FILLER_25_205
*582 FILLER_25_217
*583 FILLER_25_223
*584 FILLER_25_225
*585 FILLER_25_237
*586 FILLER_25_249
*587 FILLER_25_261
*588 FILLER_25_27
*589 FILLER_25_273
*590 FILLER_25_279
*591 FILLER_25_281
*592 FILLER_25_293
*593 FILLER_25_3
*594 FILLER_25_39
*595 FILLER_25_51
*596 FILLER_25_55
*597 FILLER_25_57
*598 FILLER_25_69
*599 FILLER_25_81
*600 FILLER_25_93
*601 FILLER_26_109
*602 FILLER_26_121
*603 FILLER_26_133
*604 FILLER_26_139
*605 FILLER_26_141
*606 FILLER_26_15
*607 FILLER_26_153
*608 FILLER_26_165
*609 FILLER_26_177
*610 FILLER_26_189
*611 FILLER_26_195
*612 FILLER_26_197
*613 FILLER_26_209
*614 FILLER_26_221
*615 FILLER_26_233
*616 FILLER_26_245
*617 FILLER_26_251
*618 FILLER_26_253
*619 FILLER_26_265
*620 FILLER_26_27
*621 FILLER_26_277
*622 FILLER_26_289
*623 FILLER_26_29
*624 FILLER_26_297
*625 FILLER_26_3
*626 FILLER_26_41
*627 FILLER_26_53
*628 FILLER_26_65
*629 FILLER_26_77
*630 FILLER_26_83
*631 FILLER_26_85
*632 FILLER_26_97
*633 FILLER_27_105
*634 FILLER_27_111
*635 FILLER_27_113
*636 FILLER_27_125
*637 FILLER_27_137
*638 FILLER_27_149
*639 FILLER_27_15
*640 FILLER_27_161
*641 FILLER_27_167
*642 FILLER_27_169
*643 FILLER_27_181
*644 FILLER_27_193
*645 FILLER_27_205
*646 FILLER_27_217
*647 FILLER_27_223
*648 FILLER_27_225
*649 FILLER_27_237
*650 FILLER_27_249
*651 FILLER_27_261
*652 FILLER_27_27
*653 FILLER_27_273
*654 FILLER_27_279
*655 FILLER_27_281
*656 FILLER_27_293
*657 FILLER_27_3
*658 FILLER_27_39
*659 FILLER_27_51
*660 FILLER_27_55
*661 FILLER_27_57
*662 FILLER_27_69
*663 FILLER_27_81
*664 FILLER_27_93
*665 FILLER_28_109
*666 FILLER_28_121
*667 FILLER_28_133
*668 FILLER_28_139
*669 FILLER_28_141
*670 FILLER_28_15
*671 FILLER_28_153
*672 FILLER_28_165
*673 FILLER_28_177
*674 FILLER_28_189
*675 FILLER_28_195
*676 FILLER_28_197
*677 FILLER_28_209
*678 FILLER_28_221
*679 FILLER_28_233
*680 FILLER_28_245
*681 FILLER_28_251
*682 FILLER_28_253
*683 FILLER_28_265
*684 FILLER_28_27
*685 FILLER_28_277
*686 FILLER_28_289
*687 FILLER_28_29
*688 FILLER_28_297
*689 FILLER_28_3
*690 FILLER_28_41
*691 FILLER_28_53
*692 FILLER_28_65
*693 FILLER_28_77
*694 FILLER_28_83
*695 FILLER_28_85
*696 FILLER_28_97
*697 FILLER_29_105
*698 FILLER_29_111
*699 FILLER_29_113
*700 FILLER_29_125
*701 FILLER_29_137
*702 FILLER_29_149
*703 FILLER_29_15
*704 FILLER_29_161
*705 FILLER_29_167
*706 FILLER_29_169
*707 FILLER_29_181
*708 FILLER_29_193
*709 FILLER_29_205
*710 FILLER_29_217
*711 FILLER_29_223
*712 FILLER_29_225
*713 FILLER_29_237
*714 FILLER_29_249
*715 FILLER_29_261
*716 FILLER_29_27
*717 FILLER_29_273
*718 FILLER_29_279
*719 FILLER_29_281
*720 FILLER_29_293
*721 FILLER_29_3
*722 FILLER_29_39
*723 FILLER_29_51
*724 FILLER_29_55
*725 FILLER_29_57
*726 FILLER_29_69
*727 FILLER_29_81
*728 FILLER_29_93
*729 FILLER_2_109
*730 FILLER_2_121
*731 FILLER_2_133
*732 FILLER_2_139
*733 FILLER_2_141
*734 FILLER_2_15
*735 FILLER_2_153
*736 FILLER_2_165
*737 FILLER_2_177
*738 FILLER_2_189
*739 FILLER_2_195
*740 FILLER_2_197
*741 FILLER_2_209
*742 FILLER_2_221
*743 FILLER_2_233
*744 FILLER_2_245
*745 FILLER_2_251
*746 FILLER_2_253
*747 FILLER_2_265
*748 FILLER_2_27
*749 FILLER_2_277
*750 FILLER_2_289
*751 FILLER_2_29
*752 FILLER_2_297
*753 FILLER_2_3
*754 FILLER_2_41
*755 FILLER_2_53
*756 FILLER_2_65
*757 FILLER_2_77
*758 FILLER_2_83
*759 FILLER_2_85
*760 FILLER_2_97
*761 FILLER_30_109
*762 FILLER_30_121
*763 FILLER_30_133
*764 FILLER_30_139
*765 FILLER_30_141
*766 FILLER_30_15
*767 FILLER_30_153
*768 FILLER_30_165
*769 FILLER_30_177
*770 FILLER_30_189
*771 FILLER_30_195
*772 FILLER_30_197
*773 FILLER_30_209
*774 FILLER_30_221
*775 FILLER_30_233
*776 FILLER_30_245
*777 FILLER_30_251
*778 FILLER_30_253
*779 FILLER_30_265
*780 FILLER_30_27
*781 FILLER_30_277
*782 FILLER_30_289
*783 FILLER_30_29
*784 FILLER_30_297
*785 FILLER_30_3
*786 FILLER_30_41
*787 FILLER_30_53
*788 FILLER_30_65
*789 FILLER_30_77
*790 FILLER_30_83
*791 FILLER_30_85
*792 FILLER_30_97
*793 FILLER_31_105
*794 FILLER_31_111
*795 FILLER_31_113
*796 FILLER_31_125
*797 FILLER_31_137
*798 FILLER_31_149
*799 FILLER_31_15
*800 FILLER_31_161
*801 FILLER_31_167
*802 FILLER_31_169
*803 FILLER_31_181
*804 FILLER_31_193
*805 FILLER_31_205
*806 FILLER_31_217
*807 FILLER_31_223
*808 FILLER_31_225
*809 FILLER_31_237
*810 FILLER_31_249
*811 FILLER_31_261
*812 FILLER_31_27
*813 FILLER_31_273
*814 FILLER_31_279
*815 FILLER_31_281
*816 FILLER_31_293
*817 FILLER_31_3
*818 FILLER_31_39
*819 FILLER_31_51
*820 FILLER_31_55
*821 FILLER_31_57
*822 FILLER_31_69
*823 FILLER_31_81
*824 FILLER_31_93
*825 FILLER_32_109
*826 FILLER_32_121
*827 FILLER_32_133
*828 FILLER_32_139
*829 FILLER_32_141
*830 FILLER_32_15
*831 FILLER_32_153
*832 FILLER_32_165
*833 FILLER_32_177
*834 FILLER_32_189
*835 FILLER_32_195
*836 FILLER_32_197
*837 FILLER_32_209
*838 FILLER_32_221
*839 FILLER_32_233
*840 FILLER_32_245
*841 FILLER_32_251
*842 FILLER_32_253
*843 FILLER_32_265
*844 FILLER_32_27
*845 FILLER_32_277
*846 FILLER_32_289
*847 FILLER_32_29
*848 FILLER_32_297
*849 FILLER_32_3
*850 FILLER_32_41
*851 FILLER_32_53
*852 FILLER_32_65
*853 FILLER_32_77
*854 FILLER_32_83
*855 FILLER_32_85
*856 FILLER_32_97
*857 FILLER_33_105
*858 FILLER_33_111
*859 FILLER_33_113
*860 FILLER_33_125
*861 FILLER_33_137
*862 FILLER_33_149
*863 FILLER_33_15
*864 FILLER_33_161
*865 FILLER_33_167
*866 FILLER_33_169
*867 FILLER_33_181
*868 FILLER_33_193
*869 FILLER_33_205
*870 FILLER_33_217
*871 FILLER_33_223
*872 FILLER_33_225
*873 FILLER_33_237
*874 FILLER_33_249
*875 FILLER_33_261
*876 FILLER_33_27
*877 FILLER_33_273
*878 FILLER_33_279
*879 FILLER_33_281
*880 FILLER_33_293
*881 FILLER_33_3
*882 FILLER_33_39
*883 FILLER_33_51
*884 FILLER_33_55
*885 FILLER_33_57
*886 FILLER_33_69
*887 FILLER_33_81
*888 FILLER_33_93
*889 FILLER_34_109
*890 FILLER_34_121
*891 FILLER_34_133
*892 FILLER_34_139
*893 FILLER_34_141
*894 FILLER_34_15
*895 FILLER_34_153
*896 FILLER_34_165
*897 FILLER_34_177
*898 FILLER_34_189
*899 FILLER_34_195
*900 FILLER_34_197
*901 FILLER_34_209
*902 FILLER_34_221
*903 FILLER_34_233
*904 FILLER_34_245
*905 FILLER_34_251
*906 FILLER_34_253
*907 FILLER_34_265
*908 FILLER_34_27
*909 FILLER_34_277
*910 FILLER_34_289
*911 FILLER_34_29
*912 FILLER_34_297
*913 FILLER_34_3
*914 FILLER_34_41
*915 FILLER_34_53
*916 FILLER_34_65
*917 FILLER_34_77
*918 FILLER_34_83
*919 FILLER_34_85
*920 FILLER_34_97
*921 FILLER_35_105
*922 FILLER_35_111
*923 FILLER_35_113
*924 FILLER_35_125
*925 FILLER_35_137
*926 FILLER_35_149
*927 FILLER_35_161
*928 FILLER_35_167
*929 FILLER_35_169
*930 FILLER_35_18
*931 FILLER_35_181
*932 FILLER_35_193
*933 FILLER_35_205
*934 FILLER_35_217
*935 FILLER_35_223
*936 FILLER_35_225
*937 FILLER_35_237
*938 FILLER_35_249
*939 FILLER_35_261
*940 FILLER_35_273
*941 FILLER_35_279
*942 FILLER_35_281
*943 FILLER_35_293
*944 FILLER_35_30
*945 FILLER_35_42
*946 FILLER_35_54
*947 FILLER_35_57
*948 FILLER_35_6
*949 FILLER_35_69
*950 FILLER_35_81
*951 FILLER_35_93
*952 FILLER_36_109
*953 FILLER_36_121
*954 FILLER_36_133
*955 FILLER_36_139
*956 FILLER_36_141
*957 FILLER_36_15
*958 FILLER_36_153
*959 FILLER_36_165
*960 FILLER_36_177
*961 FILLER_36_189
*962 FILLER_36_195
*963 FILLER_36_197
*964 FILLER_36_209
*965 FILLER_36_221
*966 FILLER_36_233
*967 FILLER_36_245
*968 FILLER_36_251
*969 FILLER_36_253
*970 FILLER_36_265
*971 FILLER_36_27
*972 FILLER_36_277
*973 FILLER_36_289
*974 FILLER_36_29
*975 FILLER_36_297
*976 FILLER_36_3
*977 FILLER_36_41
*978 FILLER_36_53
*979 FILLER_36_65
*980 FILLER_36_77
*981 FILLER_36_83
*982 FILLER_36_85
*983 FILLER_36_97
*984 FILLER_37_105
*985 FILLER_37_111
*986 FILLER_37_113
*987 FILLER_37_125
*988 FILLER_37_137
*989 FILLER_37_149
*990 FILLER_37_15
*991 FILLER_37_161
*992 FILLER_37_167
*993 FILLER_37_169
*994 FILLER_37_181
*995 FILLER_37_193
*996 FILLER_37_205
*997 FILLER_37_217
*998 FILLER_37_223
*999 FILLER_37_225
*1000 FILLER_37_237
*1001 FILLER_37_249
*1002 FILLER_37_261
*1003 FILLER_37_27
*1004 FILLER_37_273
*1005 FILLER_37_279
*1006 FILLER_37_281
*1007 FILLER_37_293
*1008 FILLER_37_3
*1009 FILLER_37_39
*1010 FILLER_37_51
*1011 FILLER_37_55
*1012 FILLER_37_57
*1013 FILLER_37_69
*1014 FILLER_37_81
*1015 FILLER_37_93
*1016 FILLER_38_109
*1017 FILLER_38_121
*1018 FILLER_38_133
*1019 FILLER_38_139
*1020 FILLER_38_141
*1021 FILLER_38_15
*1022 FILLER_38_153
*1023 FILLER_38_165
*1024 FILLER_38_177
*1025 FILLER_38_189
*1026 FILLER_38_195
*1027 FILLER_38_197
*1028 FILLER_38_209
*1029 FILLER_38_221
*1030 FILLER_38_233
*1031 FILLER_38_245
*1032 FILLER_38_251
*1033 FILLER_38_253
*1034 FILLER_38_265
*1035 FILLER_38_27
*1036 FILLER_38_277
*1037 FILLER_38_289
*1038 FILLER_38_29
*1039 FILLER_38_297
*1040 FILLER_38_3
*1041 FILLER_38_41
*1042 FILLER_38_53
*1043 FILLER_38_65
*1044 FILLER_38_77
*1045 FILLER_38_83
*1046 FILLER_38_85
*1047 FILLER_38_97
*1048 FILLER_39_105
*1049 FILLER_39_111
*1050 FILLER_39_113
*1051 FILLER_39_125
*1052 FILLER_39_137
*1053 FILLER_39_149
*1054 FILLER_39_161
*1055 FILLER_39_167
*1056 FILLER_39_169
*1057 FILLER_39_18
*1058 FILLER_39_181
*1059 FILLER_39_193
*1060 FILLER_39_205
*1061 FILLER_39_217
*1062 FILLER_39_223
*1063 FILLER_39_225
*1064 FILLER_39_237
*1065 FILLER_39_249
*1066 FILLER_39_261
*1067 FILLER_39_273
*1068 FILLER_39_279
*1069 FILLER_39_281
*1070 FILLER_39_293
*1071 FILLER_39_30
*1072 FILLER_39_42
*1073 FILLER_39_54
*1074 FILLER_39_57
*1075 FILLER_39_6
*1076 FILLER_39_69
*1077 FILLER_39_81
*1078 FILLER_39_93
*1079 FILLER_3_105
*1080 FILLER_3_111
*1081 FILLER_3_113
*1082 FILLER_3_125
*1083 FILLER_3_137
*1084 FILLER_3_149
*1085 FILLER_3_15
*1086 FILLER_3_161
*1087 FILLER_3_167
*1088 FILLER_3_169
*1089 FILLER_3_181
*1090 FILLER_3_193
*1091 FILLER_3_205
*1092 FILLER_3_217
*1093 FILLER_3_223
*1094 FILLER_3_225
*1095 FILLER_3_237
*1096 FILLER_3_249
*1097 FILLER_3_261
*1098 FILLER_3_27
*1099 FILLER_3_273
*1100 FILLER_3_279
*1101 FILLER_3_281
*1102 FILLER_3_293
*1103 FILLER_3_3
*1104 FILLER_3_39
*1105 FILLER_3_51
*1106 FILLER_3_55
*1107 FILLER_3_57
*1108 FILLER_3_69
*1109 FILLER_3_81
*1110 FILLER_3_93
*1111 FILLER_40_109
*1112 FILLER_40_121
*1113 FILLER_40_133
*1114 FILLER_40_139
*1115 FILLER_40_141
*1116 FILLER_40_15
*1117 FILLER_40_153
*1118 FILLER_40_165
*1119 FILLER_40_177
*1120 FILLER_40_189
*1121 FILLER_40_195
*1122 FILLER_40_197
*1123 FILLER_40_209
*1124 FILLER_40_221
*1125 FILLER_40_233
*1126 FILLER_40_245
*1127 FILLER_40_251
*1128 FILLER_40_253
*1129 FILLER_40_265
*1130 FILLER_40_27
*1131 FILLER_40_277
*1132 FILLER_40_289
*1133 FILLER_40_29
*1134 FILLER_40_297
*1135 FILLER_40_3
*1136 FILLER_40_41
*1137 FILLER_40_53
*1138 FILLER_40_65
*1139 FILLER_40_77
*1140 FILLER_40_83
*1141 FILLER_40_85
*1142 FILLER_40_97
*1143 FILLER_41_105
*1144 FILLER_41_111
*1145 FILLER_41_113
*1146 FILLER_41_125
*1147 FILLER_41_137
*1148 FILLER_41_149
*1149 FILLER_41_15
*1150 FILLER_41_161
*1151 FILLER_41_167
*1152 FILLER_41_169
*1153 FILLER_41_181
*1154 FILLER_41_193
*1155 FILLER_41_205
*1156 FILLER_41_217
*1157 FILLER_41_223
*1158 FILLER_41_225
*1159 FILLER_41_237
*1160 FILLER_41_249
*1161 FILLER_41_261
*1162 FILLER_41_27
*1163 FILLER_41_273
*1164 FILLER_41_279
*1165 FILLER_41_281
*1166 FILLER_41_293
*1167 FILLER_41_3
*1168 FILLER_41_39
*1169 FILLER_41_51
*1170 FILLER_41_55
*1171 FILLER_41_57
*1172 FILLER_41_69
*1173 FILLER_41_81
*1174 FILLER_41_93
*1175 FILLER_42_109
*1176 FILLER_42_121
*1177 FILLER_42_133
*1178 FILLER_42_139
*1179 FILLER_42_141
*1180 FILLER_42_153
*1181 FILLER_42_165
*1182 FILLER_42_177
*1183 FILLER_42_18
*1184 FILLER_42_189
*1185 FILLER_42_195
*1186 FILLER_42_197
*1187 FILLER_42_209
*1188 FILLER_42_221
*1189 FILLER_42_233
*1190 FILLER_42_245
*1191 FILLER_42_251
*1192 FILLER_42_253
*1193 FILLER_42_26
*1194 FILLER_42_265
*1195 FILLER_42_277
*1196 FILLER_42_289
*1197 FILLER_42_29
*1198 FILLER_42_297
*1199 FILLER_42_41
*1200 FILLER_42_53
*1201 FILLER_42_6
*1202 FILLER_42_65
*1203 FILLER_42_77
*1204 FILLER_42_83
*1205 FILLER_42_85
*1206 FILLER_42_97
*1207 FILLER_43_105
*1208 FILLER_43_111
*1209 FILLER_43_113
*1210 FILLER_43_125
*1211 FILLER_43_137
*1212 FILLER_43_149
*1213 FILLER_43_15
*1214 FILLER_43_161
*1215 FILLER_43_167
*1216 FILLER_43_169
*1217 FILLER_43_181
*1218 FILLER_43_193
*1219 FILLER_43_205
*1220 FILLER_43_217
*1221 FILLER_43_223
*1222 FILLER_43_225
*1223 FILLER_43_237
*1224 FILLER_43_249
*1225 FILLER_43_261
*1226 FILLER_43_27
*1227 FILLER_43_273
*1228 FILLER_43_279
*1229 FILLER_43_281
*1230 FILLER_43_293
*1231 FILLER_43_3
*1232 FILLER_43_39
*1233 FILLER_43_51
*1234 FILLER_43_55
*1235 FILLER_43_57
*1236 FILLER_43_69
*1237 FILLER_43_81
*1238 FILLER_43_93
*1239 FILLER_44_109
*1240 FILLER_44_121
*1241 FILLER_44_133
*1242 FILLER_44_139
*1243 FILLER_44_141
*1244 FILLER_44_15
*1245 FILLER_44_153
*1246 FILLER_44_165
*1247 FILLER_44_177
*1248 FILLER_44_189
*1249 FILLER_44_195
*1250 FILLER_44_197
*1251 FILLER_44_209
*1252 FILLER_44_221
*1253 FILLER_44_233
*1254 FILLER_44_245
*1255 FILLER_44_251
*1256 FILLER_44_253
*1257 FILLER_44_265
*1258 FILLER_44_27
*1259 FILLER_44_277
*1260 FILLER_44_289
*1261 FILLER_44_29
*1262 FILLER_44_297
*1263 FILLER_44_3
*1264 FILLER_44_41
*1265 FILLER_44_53
*1266 FILLER_44_65
*1267 FILLER_44_77
*1268 FILLER_44_83
*1269 FILLER_44_85
*1270 FILLER_44_97
*1271 FILLER_45_105
*1272 FILLER_45_111
*1273 FILLER_45_113
*1274 FILLER_45_125
*1275 FILLER_45_137
*1276 FILLER_45_149
*1277 FILLER_45_15
*1278 FILLER_45_161
*1279 FILLER_45_167
*1280 FILLER_45_169
*1281 FILLER_45_181
*1282 FILLER_45_193
*1283 FILLER_45_205
*1284 FILLER_45_217
*1285 FILLER_45_223
*1286 FILLER_45_225
*1287 FILLER_45_237
*1288 FILLER_45_249
*1289 FILLER_45_261
*1290 FILLER_45_27
*1291 FILLER_45_273
*1292 FILLER_45_279
*1293 FILLER_45_281
*1294 FILLER_45_293
*1295 FILLER_45_3
*1296 FILLER_45_39
*1297 FILLER_45_51
*1298 FILLER_45_55
*1299 FILLER_45_57
*1300 FILLER_45_69
*1301 FILLER_45_81
*1302 FILLER_45_93
*1303 FILLER_46_109
*1304 FILLER_46_121
*1305 FILLER_46_133
*1306 FILLER_46_139
*1307 FILLER_46_141
*1308 FILLER_46_153
*1309 FILLER_46_165
*1310 FILLER_46_177
*1311 FILLER_46_18
*1312 FILLER_46_189
*1313 FILLER_46_195
*1314 FILLER_46_197
*1315 FILLER_46_209
*1316 FILLER_46_221
*1317 FILLER_46_233
*1318 FILLER_46_245
*1319 FILLER_46_251
*1320 FILLER_46_253
*1321 FILLER_46_26
*1322 FILLER_46_265
*1323 FILLER_46_277
*1324 FILLER_46_289
*1325 FILLER_46_29
*1326 FILLER_46_297
*1327 FILLER_46_41
*1328 FILLER_46_53
*1329 FILLER_46_6
*1330 FILLER_46_65
*1331 FILLER_46_77
*1332 FILLER_46_83
*1333 FILLER_46_85
*1334 FILLER_46_97
*1335 FILLER_47_105
*1336 FILLER_47_111
*1337 FILLER_47_113
*1338 FILLER_47_125
*1339 FILLER_47_137
*1340 FILLER_47_149
*1341 FILLER_47_15
*1342 FILLER_47_161
*1343 FILLER_47_167
*1344 FILLER_47_169
*1345 FILLER_47_181
*1346 FILLER_47_193
*1347 FILLER_47_205
*1348 FILLER_47_217
*1349 FILLER_47_223
*1350 FILLER_47_225
*1351 FILLER_47_237
*1352 FILLER_47_249
*1353 FILLER_47_261
*1354 FILLER_47_27
*1355 FILLER_47_273
*1356 FILLER_47_279
*1357 FILLER_47_281
*1358 FILLER_47_293
*1359 FILLER_47_3
*1360 FILLER_47_39
*1361 FILLER_47_51
*1362 FILLER_47_55
*1363 FILLER_47_57
*1364 FILLER_47_69
*1365 FILLER_47_81
*1366 FILLER_47_93
*1367 FILLER_48_109
*1368 FILLER_48_121
*1369 FILLER_48_133
*1370 FILLER_48_139
*1371 FILLER_48_141
*1372 FILLER_48_15
*1373 FILLER_48_153
*1374 FILLER_48_165
*1375 FILLER_48_177
*1376 FILLER_48_189
*1377 FILLER_48_195
*1378 FILLER_48_197
*1379 FILLER_48_209
*1380 FILLER_48_221
*1381 FILLER_48_233
*1382 FILLER_48_245
*1383 FILLER_48_251
*1384 FILLER_48_253
*1385 FILLER_48_265
*1386 FILLER_48_27
*1387 FILLER_48_277
*1388 FILLER_48_289
*1389 FILLER_48_29
*1390 FILLER_48_297
*1391 FILLER_48_3
*1392 FILLER_48_41
*1393 FILLER_48_53
*1394 FILLER_48_65
*1395 FILLER_48_77
*1396 FILLER_48_83
*1397 FILLER_48_85
*1398 FILLER_48_97
*1399 FILLER_49_105
*1400 FILLER_49_111
*1401 FILLER_49_113
*1402 FILLER_49_125
*1403 FILLER_49_137
*1404 FILLER_49_149
*1405 FILLER_49_15
*1406 FILLER_49_161
*1407 FILLER_49_167
*1408 FILLER_49_169
*1409 FILLER_49_181
*1410 FILLER_49_193
*1411 FILLER_49_205
*1412 FILLER_49_217
*1413 FILLER_49_223
*1414 FILLER_49_225
*1415 FILLER_49_237
*1416 FILLER_49_249
*1417 FILLER_49_261
*1418 FILLER_49_27
*1419 FILLER_49_273
*1420 FILLER_49_279
*1421 FILLER_49_281
*1422 FILLER_49_293
*1423 FILLER_49_3
*1424 FILLER_49_39
*1425 FILLER_49_51
*1426 FILLER_49_55
*1427 FILLER_49_57
*1428 FILLER_49_69
*1429 FILLER_49_81
*1430 FILLER_49_93
*1431 FILLER_4_109
*1432 FILLER_4_121
*1433 FILLER_4_133
*1434 FILLER_4_139
*1435 FILLER_4_141
*1436 FILLER_4_15
*1437 FILLER_4_153
*1438 FILLER_4_165
*1439 FILLER_4_177
*1440 FILLER_4_189
*1441 FILLER_4_195
*1442 FILLER_4_197
*1443 FILLER_4_209
*1444 FILLER_4_221
*1445 FILLER_4_233
*1446 FILLER_4_245
*1447 FILLER_4_251
*1448 FILLER_4_253
*1449 FILLER_4_265
*1450 FILLER_4_27
*1451 FILLER_4_277
*1452 FILLER_4_289
*1453 FILLER_4_29
*1454 FILLER_4_297
*1455 FILLER_4_3
*1456 FILLER_4_41
*1457 FILLER_4_53
*1458 FILLER_4_65
*1459 FILLER_4_77
*1460 FILLER_4_83
*1461 FILLER_4_85
*1462 FILLER_4_97
*1463 FILLER_50_109
*1464 FILLER_50_121
*1465 FILLER_50_133
*1466 FILLER_50_139
*1467 FILLER_50_141
*1468 FILLER_50_153
*1469 FILLER_50_165
*1470 FILLER_50_177
*1471 FILLER_50_18
*1472 FILLER_50_189
*1473 FILLER_50_195
*1474 FILLER_50_197
*1475 FILLER_50_209
*1476 FILLER_50_221
*1477 FILLER_50_233
*1478 FILLER_50_245
*1479 FILLER_50_251
*1480 FILLER_50_253
*1481 FILLER_50_26
*1482 FILLER_50_265
*1483 FILLER_50_277
*1484 FILLER_50_289
*1485 FILLER_50_29
*1486 FILLER_50_297
*1487 FILLER_50_41
*1488 FILLER_50_53
*1489 FILLER_50_6
*1490 FILLER_50_65
*1491 FILLER_50_77
*1492 FILLER_50_83
*1493 FILLER_50_85
*1494 FILLER_50_97
*1495 FILLER_51_105
*1496 FILLER_51_111
*1497 FILLER_51_113
*1498 FILLER_51_125
*1499 FILLER_51_137
*1500 FILLER_51_149
*1501 FILLER_51_15
*1502 FILLER_51_161
*1503 FILLER_51_167
*1504 FILLER_51_169
*1505 FILLER_51_181
*1506 FILLER_51_193
*1507 FILLER_51_205
*1508 FILLER_51_217
*1509 FILLER_51_223
*1510 FILLER_51_225
*1511 FILLER_51_237
*1512 FILLER_51_249
*1513 FILLER_51_261
*1514 FILLER_51_27
*1515 FILLER_51_273
*1516 FILLER_51_279
*1517 FILLER_51_281
*1518 FILLER_51_293
*1519 FILLER_51_3
*1520 FILLER_51_39
*1521 FILLER_51_51
*1522 FILLER_51_55
*1523 FILLER_51_57
*1524 FILLER_51_69
*1525 FILLER_51_81
*1526 FILLER_51_93
*1527 FILLER_52_109
*1528 FILLER_52_121
*1529 FILLER_52_133
*1530 FILLER_52_139
*1531 FILLER_52_141
*1532 FILLER_52_15
*1533 FILLER_52_153
*1534 FILLER_52_165
*1535 FILLER_52_177
*1536 FILLER_52_189
*1537 FILLER_52_195
*1538 FILLER_52_197
*1539 FILLER_52_209
*1540 FILLER_52_221
*1541 FILLER_52_233
*1542 FILLER_52_245
*1543 FILLER_52_251
*1544 FILLER_52_253
*1545 FILLER_52_265
*1546 FILLER_52_27
*1547 FILLER_52_277
*1548 FILLER_52_289
*1549 FILLER_52_29
*1550 FILLER_52_297
*1551 FILLER_52_3
*1552 FILLER_52_41
*1553 FILLER_52_53
*1554 FILLER_52_65
*1555 FILLER_52_77
*1556 FILLER_52_83
*1557 FILLER_52_85
*1558 FILLER_52_97
*1559 FILLER_53_105
*1560 FILLER_53_111
*1561 FILLER_53_113
*1562 FILLER_53_125
*1563 FILLER_53_137
*1564 FILLER_53_149
*1565 FILLER_53_15
*1566 FILLER_53_161
*1567 FILLER_53_167
*1568 FILLER_53_169
*1569 FILLER_53_181
*1570 FILLER_53_193
*1571 FILLER_53_205
*1572 FILLER_53_217
*1573 FILLER_53_223
*1574 FILLER_53_225
*1575 FILLER_53_237
*1576 FILLER_53_249
*1577 FILLER_53_261
*1578 FILLER_53_27
*1579 FILLER_53_273
*1580 FILLER_53_279
*1581 FILLER_53_281
*1582 FILLER_53_293
*1583 FILLER_53_3
*1584 FILLER_53_39