*SPEF "ieee 1481-1999"
*DESIGN "user_module_341628725785264722"
*DATE "11:11:11 Fri 11 11, 1111"
*VENDOR "OpenRCX"
*PROGRAM "Parallel Extraction"
*VERSION "1.0"
*DESIGN_FLOW "NAME_SCOPE LOCAL" "PIN_CAP NONE"
*DIVIDER /
*DELIMITER :
*BUS_DELIMITER []
*T_UNIT 1 NS
*C_UNIT 1 PF
*R_UNIT 1 OHM
*L_UNIT 1 HENRY

*NAME_MAP
*1 io_in[0]
*2 io_in[1]
*3 io_in[2]
*4 io_in[3]
*5 io_in[4]
*6 io_in[5]
*7 io_in[6]
*8 io_in[7]
*9 io_out[0]
*10 io_out[1]
*11 io_out[2]
*12 io_out[3]
*13 io_out[4]
*14 io_out[5]
*15 io_out[6]
*16 io_out[7]
*19 _000_
*20 _001_
*21 _002_
*22 _003_
*23 _004_
*24 _005_
*25 _006_
*26 _007_
*27 _008_
*28 _009_
*29 _010_
*30 _011_
*31 _012_
*32 _013_
*33 _014_
*34 _015_
*35 _016_
*36 _017_
*37 _018_
*38 _019_
*39 _020_
*40 _021_
*41 _022_
*42 _023_
*43 _024_
*44 _025_
*45 _026_
*46 _027_
*47 _028_
*48 _029_
*49 _030_
*50 _031_
*51 _032_
*52 _033_
*53 _034_
*54 _035_
*55 _036_
*56 _037_
*57 _038_
*58 _039_
*59 _040_
*60 _041_
*61 _042_
*62 _043_
*63 _044_
*64 _045_
*65 _046_
*66 _047_
*67 _048_
*68 _049_
*69 _050_
*70 _051_
*71 _052_
*72 _053_
*73 _054_
*74 _055_
*75 _056_
*76 _057_
*77 _058_
*78 _059_
*79 _060_
*80 _061_
*81 _062_
*82 _063_
*83 _064_
*84 _065_
*85 _066_
*86 _067_
*87 _068_
*88 _069_
*89 _070_
*90 _071_
*91 _072_
*92 _073_
*93 _074_
*94 _075_
*95 _076_
*96 _077_
*97 _078_
*98 _079_
*99 _080_
*100 _081_
*101 _082_
*102 _083_
*103 _084_
*104 _085_
*105 _086_
*106 _087_
*107 _088_
*108 _089_
*109 _090_
*110 _091_
*111 _092_
*112 _093_
*113 _094_
*114 _095_
*115 _096_
*116 _097_
*117 _098_
*118 _099_
*119 _100_
*120 _101_
*121 _102_
*122 _103_
*123 _104_
*124 _105_
*125 _106_
*126 _107_
*127 _108_
*128 _109_
*129 _110_
*130 _111_
*131 _112_
*132 _113_
*133 _114_
*134 _115_
*135 _116_
*136 _117_
*137 _118_
*138 _119_
*139 _120_
*140 _121_
*141 _122_
*142 _123_
*143 _124_
*144 _125_
*145 _126_
*146 _127_
*147 _128_
*148 _129_
*149 _130_
*150 _131_
*151 _132_
*152 _133_
*153 _134_
*154 _135_
*155 _136_
*156 _137_
*157 _138_
*158 _139_
*159 _140_
*160 _141_
*161 _142_
*162 _143_
*163 _144_
*164 _145_
*165 _146_
*166 _147_
*167 _148_
*168 _149_
*169 _150_
*170 _151_
*171 _152_
*172 _153_
*173 _154_
*174 _155_
*175 _156_
*176 _157_
*177 _158_
*178 _159_
*179 _160_
*180 _161_
*181 _162_
*182 _163_
*183 _164_
*184 _165_
*185 _166_
*186 _167_
*187 _168_
*188 _169_
*189 _170_
*190 _171_
*191 _172_
*192 _173_
*193 _174_
*194 _175_
*195 _176_
*196 _177_
*197 _178_
*198 _179_
*199 _180_
*200 _181_
*201 _182_
*202 _183_
*203 _184_
*204 _185_
*205 _186_
*206 _187_
*207 _188_
*208 _189_
*209 _190_
*210 _191_
*211 _192_
*212 _193_
*213 _194_
*214 _195_
*215 _196_
*216 _197_
*217 _198_
*218 _199_
*219 c1_1
*220 c2_1
*221 c4_1
*222 c5_1
*223 c6_1
*224 clknet_0_io_in[0]
*225 clknet_1_0__leaf_io_in[0]
*226 clknet_1_1__leaf_io_in[0]
*227 data\[0\]
*228 data\[10\]
*229 data\[11\]
*230 data\[12\]
*231 data\[13\]
*232 data\[14\]
*233 data\[15\]
*234 data\[16\]
*235 data\[17\]
*236 data\[18\]
*237 data\[19\]
*238 data\[1\]
*239 data\[20\]
*240 data\[21\]
*241 data\[22\]
*242 data\[23\]
*243 data\[24\]
*244 data\[25\]
*245 data\[26\]
*246 data\[27\]
*247 data\[2\]
*248 data\[3\]
*249 data\[4\]
*250 data\[5\]
*251 data\[6\]
*252 data\[7\]
*253 data\[8\]
*254 data\[9\]
*255 net1
*256 net10
*257 net11
*258 net12
*259 net13
*260 net14
*261 net15
*262 net16
*263 net17
*264 net18
*265 net19
*266 net2
*267 net3
*268 net4
*269 net5
*270 net6
*271 net7
*272 net8
*273 net9
*274 random_out
*275 selected_clock
*276 shifter\[0\]
*277 shifter\[10\]
*278 shifter\[11\]
*279 shifter\[1\]
*280 shifter\[2\]
*281 shifter\[3\]
*282 shifter\[4\]
*283 shifter\[5\]
*284 shifter\[6\]
*285 shifter\[7\]
*286 shifter\[8\]
*287 shifter\[9\]
*288 tmp0\.data\[0\]
*289 tmp0\.data\[1\]
*290 tmp1\.data\[0\]
*291 tmp1\.data\[1\]
*292 tmp2\.data\[0\]
*293 tmp2\.data\[1\]
*294 tmp3\.clk
*295 tmp3\.data\[0\]
*296 tmp3\.data\[1\]
*297 tmp4\.data\[0\]
*298 tmp4\.data\[1\]
*299 tmp5\.data\[0\]
*300 tmp5\.data\[1\]
*301 tmp6\.data\[0\]
*302 tmp6\.data\[1\]
*303 tmp7\.clk
*304 tmp7\.data\[0\]
*305 tmp7\.data\[1\]
*306 FILLER_0_109
*307 FILLER_0_113
*308 FILLER_0_125
*309 FILLER_0_137
*310 FILLER_0_141
*311 FILLER_0_153
*312 FILLER_0_165
*313 FILLER_0_169
*314 FILLER_0_181
*315 FILLER_0_193
*316 FILLER_0_197
*317 FILLER_0_209
*318 FILLER_0_221
*319 FILLER_0_225
*320 FILLER_0_237
*321 FILLER_0_24
*322 FILLER_0_249
*323 FILLER_0_253
*324 FILLER_0_265
*325 FILLER_0_277
*326 FILLER_0_281
*327 FILLER_0_293
*328 FILLER_0_3
*329 FILLER_0_45
*330 FILLER_0_52
*331 FILLER_0_60
*332 FILLER_0_72
*333 FILLER_0_85
*334 FILLER_0_97
*335 FILLER_10_109
*336 FILLER_10_12
*337 FILLER_10_121
*338 FILLER_10_133
*339 FILLER_10_139
*340 FILLER_10_141
*341 FILLER_10_153
*342 FILLER_10_165
*343 FILLER_10_177
*344 FILLER_10_189
*345 FILLER_10_195
*346 FILLER_10_197
*347 FILLER_10_209
*348 FILLER_10_221
*349 FILLER_10_233
*350 FILLER_10_24
*351 FILLER_10_245
*352 FILLER_10_251
*353 FILLER_10_253
*354 FILLER_10_265
*355 FILLER_10_277
*356 FILLER_10_289
*357 FILLER_10_29
*358 FILLER_10_297
*359 FILLER_10_40
*360 FILLER_10_61
*361 FILLER_10_68
*362 FILLER_10_80
*363 FILLER_10_85
*364 FILLER_10_97
*365 FILLER_11_105
*366 FILLER_11_111
*367 FILLER_11_113
*368 FILLER_11_125
*369 FILLER_11_137
*370 FILLER_11_149
*371 FILLER_11_15
*372 FILLER_11_161
*373 FILLER_11_167
*374 FILLER_11_169
*375 FILLER_11_181
*376 FILLER_11_193
*377 FILLER_11_205
*378 FILLER_11_21
*379 FILLER_11_217
*380 FILLER_11_223
*381 FILLER_11_225
*382 FILLER_11_237
*383 FILLER_11_249
*384 FILLER_11_261
*385 FILLER_11_273
*386 FILLER_11_279
*387 FILLER_11_281
*388 FILLER_11_293
*389 FILLER_11_3
*390 FILLER_11_30
*391 FILLER_11_41
*392 FILLER_11_49
*393 FILLER_11_55
*394 FILLER_11_73
*395 FILLER_11_81
*396 FILLER_11_93
*397 FILLER_12_109
*398 FILLER_12_121
*399 FILLER_12_133
*400 FILLER_12_139
*401 FILLER_12_141
*402 FILLER_12_153
*403 FILLER_12_165
*404 FILLER_12_177
*405 FILLER_12_189
*406 FILLER_12_195
*407 FILLER_12_197
*408 FILLER_12_20
*409 FILLER_12_209
*410 FILLER_12_221
*411 FILLER_12_233
*412 FILLER_12_245
*413 FILLER_12_251
*414 FILLER_12_253
*415 FILLER_12_265
*416 FILLER_12_277
*417 FILLER_12_289
*418 FILLER_12_297
*419 FILLER_12_32
*420 FILLER_12_39
*421 FILLER_12_47
*422 FILLER_12_59
*423 FILLER_12_6
*424 FILLER_12_63
*425 FILLER_12_80
*426 FILLER_12_85
*427 FILLER_12_97
*428 FILLER_13_103
*429 FILLER_13_111
*430 FILLER_13_113
*431 FILLER_13_12
*432 FILLER_13_125
*433 FILLER_13_137
*434 FILLER_13_149
*435 FILLER_13_161
*436 FILLER_13_167
*437 FILLER_13_169
*438 FILLER_13_181
*439 FILLER_13_193
*440 FILLER_13_205
*441 FILLER_13_21
*442 FILLER_13_217
*443 FILLER_13_223
*444 FILLER_13_225
*445 FILLER_13_237
*446 FILLER_13_249
*447 FILLER_13_261
*448 FILLER_13_273
*449 FILLER_13_279
*450 FILLER_13_281
*451 FILLER_13_293
*452 FILLER_13_3
*453 FILLER_13_36
*454 FILLER_13_43
*455 FILLER_13_47
*456 FILLER_13_52
*457 FILLER_13_63
*458 FILLER_13_91
*459 FILLER_14_10
*460 FILLER_14_109
*461 FILLER_14_121
*462 FILLER_14_133
*463 FILLER_14_139
*464 FILLER_14_141
*465 FILLER_14_153
*466 FILLER_14_165
*467 FILLER_14_177
*468 FILLER_14_189
*469 FILLER_14_195
*470 FILLER_14_197
*471 FILLER_14_20
*472 FILLER_14_209
*473 FILLER_14_221
*474 FILLER_14_233
*475 FILLER_14_245
*476 FILLER_14_251
*477 FILLER_14_253
*478 FILLER_14_265
*479 FILLER_14_277
*480 FILLER_14_289
*481 FILLER_14_29
*482 FILLER_14_297
*483 FILLER_14_39
*484 FILLER_14_61
*485 FILLER_14_69
*486 FILLER_14_76
*487 FILLER_14_85
*488 FILLER_14_97
*489 FILLER_15_104
*490 FILLER_15_116
*491 FILLER_15_128
*492 FILLER_15_14
*493 FILLER_15_140
*494 FILLER_15_152
*495 FILLER_15_164
*496 FILLER_15_169
*497 FILLER_15_181
*498 FILLER_15_19
*499 FILLER_15_193
*500 FILLER_15_205
*501 FILLER_15_217
*502 FILLER_15_223
*503 FILLER_15_225
*504 FILLER_15_237
*505 FILLER_15_249
*506 FILLER_15_261
*507 FILLER_15_27
*508 FILLER_15_273
*509 FILLER_15_279
*510 FILLER_15_281
*511 FILLER_15_293
*512 FILLER_15_34
*513 FILLER_15_42
*514 FILLER_15_47
*515 FILLER_15_55
*516 FILLER_15_57
*517 FILLER_15_6
*518 FILLER_15_69
*519 FILLER_15_73
*520 FILLER_15_80
*521 FILLER_15_92
*522 FILLER_16_118
*523 FILLER_16_130
*524 FILLER_16_138
*525 FILLER_16_141
*526 FILLER_16_153
*527 FILLER_16_165
*528 FILLER_16_177
*529 FILLER_16_189
*530 FILLER_16_19
*531 FILLER_16_195
*532 FILLER_16_197
*533 FILLER_16_209
*534 FILLER_16_221
*535 FILLER_16_233
*536 FILLER_16_245
*537 FILLER_16_251
*538 FILLER_16_253
*539 FILLER_16_265
*540 FILLER_16_27
*541 FILLER_16_277
*542 FILLER_16_289
*543 FILLER_16_297
*544 FILLER_16_32
*545 FILLER_16_36
*546 FILLER_16_41
*547 FILLER_16_52
*548 FILLER_16_69
*549 FILLER_16_80
*550 FILLER_16_85
*551 FILLER_16_97
*552 FILLER_17_102
*553 FILLER_17_110
*554 FILLER_17_113
*555 FILLER_17_125
*556 FILLER_17_137
*557 FILLER_17_149
*558 FILLER_17_16
*559 FILLER_17_161
*560 FILLER_17_167
*561 FILLER_17_169
*562 FILLER_17_181
*563 FILLER_17_193
*564 FILLER_17_205
*565 FILLER_17_217
*566 FILLER_17_223
*567 FILLER_17_225
*568 FILLER_17_237
*569 FILLER_17_249
*570 FILLER_17_261
*571 FILLER_17_273
*572 FILLER_17_279
*573 FILLER_17_281
*574 FILLER_17_293
*575 FILLER_17_3
*576 FILLER_17_36
*577 FILLER_17_46
*578 FILLER_17_54
*579 FILLER_17_57
*580 FILLER_17_69
*581 FILLER_17_77
*582 FILLER_17_81
*583 FILLER_17_93
*584 FILLER_18_101
*585 FILLER_18_108
*586 FILLER_18_11
*587 FILLER_18_120
*588 FILLER_18_132
*589 FILLER_18_141
*590 FILLER_18_153
*591 FILLER_18_165
*592 FILLER_18_177
*593 FILLER_18_189
*594 FILLER_18_195
*595 FILLER_18_197
*596 FILLER_18_209
*597 FILLER_18_21
*598 FILLER_18_221
*599 FILLER_18_233
*600 FILLER_18_245
*601 FILLER_18_251
*602 FILLER_18_253
*603 FILLER_18_265
*604 FILLER_18_27
*605 FILLER_18_277
*606 FILLER_18_289
*607 FILLER_18_297
*608 FILLER_18_3
*609 FILLER_18_32
*610 FILLER_18_41
*611 FILLER_18_53
*612 FILLER_18_76
*613 FILLER_19_108
*614 FILLER_19_120
*615 FILLER_19_132
*616 FILLER_19_144
*617 FILLER_19_156
*618 FILLER_19_169
*619 FILLER_19_181
*620 FILLER_19_193
*621 FILLER_19_20
*622 FILLER_19_205
*623 FILLER_19_217
*624 FILLER_19_223
*625 FILLER_19_225
*626 FILLER_19_237
*627 FILLER_19_249
*628 FILLER_19_261
*629 FILLER_19_273
*630 FILLER_19_279
*631 FILLER_19_281
*632 FILLER_19_293
*633 FILLER_19_3
*634 FILLER_19_32
*635 FILLER_19_52
*636 FILLER_19_57
*637 FILLER_19_76
*638 FILLER_19_8
*639 FILLER_1_105
*640 FILLER_1_111
*641 FILLER_1_113
*642 FILLER_1_125
*643 FILLER_1_137
*644 FILLER_1_149
*645 FILLER_1_161
*646 FILLER_1_167
*647 FILLER_1_169
*648 FILLER_1_181
*649 FILLER_1_193
*650 FILLER_1_205
*651 FILLER_1_217
*652 FILLER_1_223
*653 FILLER_1_225
*654 FILLER_1_237
*655 FILLER_1_249
*656 FILLER_1_261
*657 FILLER_1_27
*658 FILLER_1_273
*659 FILLER_1_279
*660 FILLER_1_281
*661 FILLER_1_293
*662 FILLER_1_3
*663 FILLER_1_47
*664 FILLER_1_55
*665 FILLER_1_57
*666 FILLER_1_69
*667 FILLER_1_81
*668 FILLER_1_93
*669 FILLER_20_104
*670 FILLER_20_116
*671 FILLER_20_128
*672 FILLER_20_141
*673 FILLER_20_153
*674 FILLER_20_165
*675 FILLER_20_177
*676 FILLER_20_18
*677 FILLER_20_189
*678 FILLER_20_195
*679 FILLER_20_197
*680 FILLER_20_209
*681 FILLER_20_221
*682 FILLER_20_233
*683 FILLER_20_245
*684 FILLER_20_251
*685 FILLER_20_253
*686 FILLER_20_26
*687 FILLER_20_265
*688 FILLER_20_277
*689 FILLER_20_289
*690 FILLER_20_29
*691 FILLER_20_297
*692 FILLER_20_44
*693 FILLER_20_6
*694 FILLER_20_61
*695 FILLER_20_67
*696 FILLER_20_75
*697 FILLER_20_83
*698 FILLER_20_85
*699 FILLER_20_96
*700 FILLER_21_106
*701 FILLER_21_113
*702 FILLER_21_125
*703 FILLER_21_137
*704 FILLER_21_149
*705 FILLER_21_161
*706 FILLER_21_167
*707 FILLER_21_169
*708 FILLER_21_181
*709 FILLER_21_19
*710 FILLER_21_193
*711 FILLER_21_205
*712 FILLER_21_217
*713 FILLER_21_223
*714 FILLER_21_225
*715 FILLER_21_237
*716 FILLER_21_249
*717 FILLER_21_261
*718 FILLER_21_273
*719 FILLER_21_279
*720 FILLER_21_281
*721 FILLER_21_293
*722 FILLER_21_37
*723 FILLER_21_43
*724 FILLER_21_51
*725 FILLER_21_55
*726 FILLER_21_70
*727 FILLER_21_76
*728 FILLER_21_80
*729 FILLER_21_87
*730 FILLER_21_98
*731 FILLER_22_119
*732 FILLER_22_131
*733 FILLER_22_139
*734 FILLER_22_14
*735 FILLER_22_141
*736 FILLER_22_153
*737 FILLER_22_165
*738 FILLER_22_177
*739 FILLER_22_189
*740 FILLER_22_195
*741 FILLER_22_197
*742 FILLER_22_209
*743 FILLER_22_221
*744 FILLER_22_233
*745 FILLER_22_24
*746 FILLER_22_245
*747 FILLER_22_251
*748 FILLER_22_253
*749 FILLER_22_265
*750 FILLER_22_277
*751 FILLER_22_289
*752 FILLER_22_297
*753 FILLER_22_37
*754 FILLER_22_45
*755 FILLER_22_56
*756 FILLER_22_6
*757 FILLER_22_80
*758 FILLER_22_88
*759 FILLER_22_95
*760 FILLER_23_107
*761 FILLER_23_111
*762 FILLER_23_116
*763 FILLER_23_128
*764 FILLER_23_13
*765 FILLER_23_140
*766 FILLER_23_152
*767 FILLER_23_164
*768 FILLER_23_169
*769 FILLER_23_17
*770 FILLER_23_181
*771 FILLER_23_193
*772 FILLER_23_205
*773 FILLER_23_21
*774 FILLER_23_217
*775 FILLER_23_223
*776 FILLER_23_225
*777 FILLER_23_237
*778 FILLER_23_249
*779 FILLER_23_261
*780 FILLER_23_273
*781 FILLER_23_279
*782 FILLER_23_281
*783 FILLER_23_293
*784 FILLER_23_42
*785 FILLER_23_51
*786 FILLER_23_55
*787 FILLER_23_64
*788 FILLER_23_76
*789 FILLER_23_88
*790 FILLER_23_93
*791 FILLER_24_103
*792 FILLER_24_115
*793 FILLER_24_127
*794 FILLER_24_139
*795 FILLER_24_141
*796 FILLER_24_153
*797 FILLER_24_165
*798 FILLER_24_177
*799 FILLER_24_189
*800 FILLER_24_195
*801 FILLER_24_197
*802 FILLER_24_209
*803 FILLER_24_21
*804 FILLER_24_221
*805 FILLER_24_233
*806 FILLER_24_245
*807 FILLER_24_251
*808 FILLER_24_253
*809 FILLER_24_265
*810 FILLER_24_27
*811 FILLER_24_277
*812 FILLER_24_289
*813 FILLER_24_29
*814 FILLER_24_297
*815 FILLER_24_3
*816 FILLER_24_37
*817 FILLER_24_42
*818 FILLER_24_53
*819 FILLER_24_61
*820 FILLER_24_73
*821 FILLER_24_81
*822 FILLER_24_85
*823 FILLER_24_97
*824 FILLER_25_100
*825 FILLER_25_107
*826 FILLER_25_111
*827 FILLER_25_118
*828 FILLER_25_130
*829 FILLER_25_142
*830 FILLER_25_154
*831 FILLER_25_166
*832 FILLER_25_169
*833 FILLER_25_181
*834 FILLER_25_19
*835 FILLER_25_193
*836 FILLER_25_205
*837 FILLER_25_217
*838 FILLER_25_223
*839 FILLER_25_225
*840 FILLER_25_237
*841 FILLER_25_249
*842 FILLER_25_261
*843 FILLER_25_27
*844 FILLER_25_273
*845 FILLER_25_279
*846 FILLER_25_281
*847 FILLER_25_293
*848 FILLER_25_39
*849 FILLER_25_51
*850 FILLER_25_55
*851 FILLER_25_57
*852 FILLER_25_65
*853 FILLER_25_76
*854 FILLER_26_120
*855 FILLER_26_132
*856 FILLER_26_141
*857 FILLER_26_153
*858 FILLER_26_16
*859 FILLER_26_165
*860 FILLER_26_177
*861 FILLER_26_189
*862 FILLER_26_195
*863 FILLER_26_197
*864 FILLER_26_209
*865 FILLER_26_221
*866 FILLER_26_233
*867 FILLER_26_24
*868 FILLER_26_245
*869 FILLER_26_251
*870 FILLER_26_253
*871 FILLER_26_265
*872 FILLER_26_277
*873 FILLER_26_289
*874 FILLER_26_297
*875 FILLER_26_3
*876 FILLER_26_36
*877 FILLER_26_40
*878 FILLER_26_48
*879 FILLER_26_73
*880 FILLER_26_8
*881 FILLER_26_81
*882 FILLER_26_88
*883 FILLER_26_92
*884 FILLER_26_96
*885 FILLER_27_102
*886 FILLER_27_110
*887 FILLER_27_116
*888 FILLER_27_128
*889 FILLER_27_140
*890 FILLER_27_152
*891 FILLER_27_164
*892 FILLER_27_169
*893 FILLER_27_181
*894 FILLER_27_193
*895 FILLER_27_20
*896 FILLER_27_205
*897 FILLER_27_217
*898 FILLER_27_223
*899 FILLER_27_225
*900 FILLER_27_237
*901 FILLER_27_249
*902 FILLER_27_261
*903 FILLER_27_27
*904 FILLER_27_273
*905 FILLER_27_279
*906 FILLER_27_281
*907 FILLER_27_293
*908 FILLER_27_3
*909 FILLER_27_39
*910 FILLER_27_48
*911 FILLER_27_57
*912 FILLER_27_69
*913 FILLER_27_91
*914 FILLER_27_97
*915 FILLER_28_105
*916 FILLER_28_117
*917 FILLER_28_129
*918 FILLER_28_137
*919 FILLER_28_141
*920 FILLER_28_153
*921 FILLER_28_165
*922 FILLER_28_177
*923 FILLER_28_189
*924 FILLER_28_195
*925 FILLER_28_197
*926 FILLER_28_209
*927 FILLER_28_221
*928 FILLER_28_233
*929 FILLER_28_24
*930 FILLER_28_245
*931 FILLER_28_251
*932 FILLER_28_253
*933 FILLER_28_265
*934 FILLER_28_277
*935 FILLER_28_289
*936 FILLER_28_297
*937 FILLER_28_3
*938 FILLER_28_36
*939 FILLER_28_48
*940 FILLER_28_52
*941 FILLER_28_60
*942 FILLER_28_7
*943 FILLER_28_72
*944 FILLER_28_80
*945 FILLER_28_85
*946 FILLER_28_96
*947 FILLER_29_103
*948 FILLER_29_111
*949 FILLER_29_113
*950 FILLER_29_125
*951 FILLER_29_137
*952 FILLER_29_149
*953 FILLER_29_161
*954 FILLER_29_167
*955 FILLER_29_169
*956 FILLER_29_181
*957 FILLER_29_19
*958 FILLER_29_193
*959 FILLER_29_205
*960 FILLER_29_217
*961 FILLER_29_223
*962 FILLER_29_225
*963 FILLER_29_237
*964 FILLER_29_249
*965 FILLER_29_261
*966 FILLER_29_273
*967 FILLER_29_279
*968 FILLER_29_281
*969 FILLER_29_293
*970 FILLER_29_31
*971 FILLER_29_44
*972 FILLER_29_64
*973 FILLER_29_71
*974 FILLER_29_81
*975 FILLER_29_92
*976 FILLER_2_109
*977 FILLER_2_121
*978 FILLER_2_133
*979 FILLER_2_139
*980 FILLER_2_141
*981 FILLER_2_153
*982 FILLER_2_165
*983 FILLER_2_177
*984 FILLER_2_189
*985 FILLER_2_19
*986 FILLER_2_195
*987 FILLER_2_197
*988 FILLER_2_209
*989 FILLER_2_221
*990 FILLER_2_233
*991 FILLER_2_245
*992 FILLER_2_251
*993 FILLER_2_253
*994 FILLER_2_265
*995 FILLER_2_27
*996 FILLER_2_277
*997 FILLER_2_289
*998 FILLER_2_297
*999 FILLER_2_35
*1000 FILLER_2_43
*1001 FILLER_2_67
*1002 FILLER_2_79
*1003 FILLER_2_83
*1004 FILLER_2_85
*1005 FILLER_2_97
*1006 FILLER_30_107
*1007 FILLER_30_119
*1008 FILLER_30_131
*1009 FILLER_30_139
*1010 FILLER_30_141
*1011 FILLER_30_153
*1012 FILLER_30_165
*1013 FILLER_30_177
*1014 FILLER_30_189
*1015 FILLER_30_195
*1016 FILLER_30_197
*1017 FILLER_30_209
*1018 FILLER_30_221
*1019 FILLER_30_233
*1020 FILLER_30_24
*1021 FILLER_30_245
*1022 FILLER_30_251
*1023 FILLER_30_253
*1024 FILLER_30_265
*1025 FILLER_30_277
*1026 FILLER_30_289
*1027 FILLER_30_29
*1028 FILLER_30_297
*1029 FILLER_30_3
*1030 FILLER_30_33
*1031 FILLER_30_50
*1032 FILLER_30_58
*1033 FILLER_30_7
*1034 FILLER_30_80
*1035 FILLER_30_95
*1036 FILLER_31_100
*1037 FILLER_31_116
*1038 FILLER_31_128
*1039 FILLER_31_140
*1040 FILLER_31_15
*1041 FILLER_31_152
*1042 FILLER_31_164
*1043 FILLER_31_169
*1044 FILLER_31_181
*1045 FILLER_31_193
*1046 FILLER_31_205
*1047 FILLER_31_217
*1048 FILLER_31_22
*1049 FILLER_31_223
*1050 FILLER_31_225
*1051 FILLER_31_237
*1052 FILLER_31_249
*1053 FILLER_31_261
*1054 FILLER_31_273
*1055 FILLER_31_279
*1056 FILLER_31_281
*1057 FILLER_31_293
*1058 FILLER_31_3
*1059 FILLER_31_42
*1060 FILLER_31_54
*1061 FILLER_31_60
*1062 FILLER_31_67
*1063 FILLER_31_75
*1064 FILLER_31_80
*1065 FILLER_31_92
*1066 FILLER_31_96
*1067 FILLER_32_116
*1068 FILLER_32_128
*1069 FILLER_32_141
*1070 FILLER_32_153
*1071 FILLER_32_165
*1072 FILLER_32_177
*1073 FILLER_32_189
*1074 FILLER_32_19
*1075 FILLER_32_195
*1076 FILLER_32_197
*1077 FILLER_32_209
*1078 FILLER_32_221
*1079 FILLER_32_233
*1080 FILLER_32_245
*1081 FILLER_32_251
*1082 FILLER_32_253
*1083 FILLER_32_265
*1084 FILLER_32_27
*1085 FILLER_32_277
*1086 FILLER_32_289
*1087 FILLER_32_297
*1088 FILLER_32_32
*1089 FILLER_32_44
*1090 FILLER_32_68
*1091 FILLER_32_79
*1092 FILLER_32_83
*1093 FILLER_32_89
*1094 FILLER_32_95
*1095 FILLER_33_103
*1096 FILLER_33_111
*1097 FILLER_33_113
*1098 FILLER_33_125
*1099 FILLER_33_137
*1100 FILLER_33_149
*1101 FILLER_33_161
*1102 FILLER_33_167
*1103 FILLER_33_169
*1104 FILLER_33_181
*1105 FILLER_33_193
*1106 FILLER_33_205
*1107 FILLER_33_217
*1108 FILLER_33_223
*1109 FILLER_33_225
*1110 FILLER_33_237
*1111 FILLER_33_249
*1112 FILLER_33_26
*1113 FILLER_33_261
*1114 FILLER_33_273
*1115 FILLER_33_279
*1116 FILLER_33_281
*1117 FILLER_33_293
*1118 FILLER_33_3
*1119 FILLER_33_38
*1120 FILLER_33_49
*1121 FILLER_33_55
*1122 FILLER_33_57
*1123 FILLER_33_61
*1124 FILLER_33_82
*1125 FILLER_33_88
*1126 FILLER_33_94
*1127 FILLER_34_119
*1128 FILLER_34_131
*1129 FILLER_34_139
*1130 FILLER_34_14
*1131 FILLER_34_141
*1132 FILLER_34_153
*1133 FILLER_34_165
*1134 FILLER_34_177
*1135 FILLER_34_189
*1136 FILLER_34_195
*1137 FILLER_34_197
*1138 FILLER_34_209
*1139 FILLER_34_221
*1140 FILLER_34_233
*1141 FILLER_34_245
*1142 FILLER_34_251
*1143 FILLER_34_253
*1144 FILLER_34_26
*1145 FILLER_34_265
*1146 FILLER_34_277
*1147 FILLER_34_289
*1148 FILLER_34_297
*1149 FILLER_34_3
*1150 FILLER_34_35
*1151 FILLER_34_43
*1152 FILLER_34_47
*1153 FILLER_34_52
*1154 FILLER_34_60
*1155 FILLER_34_64
*1156 FILLER_34_72
*1157 FILLER_34_85
*1158 FILLER_34_95
*1159 FILLER_35_108
*1160 FILLER_35_116
*1161 FILLER_35_128
*1162 FILLER_35_140
*1163 FILLER_35_152
*1164 FILLER_35_164
*1165 FILLER_35_169
*1166 FILLER_35_181
*1167 FILLER_35_193
*1168 FILLER_35_20
*1169 FILLER_35_205
*1170 FILLER_35_217
*1171 FILLER_35_223
*1172 FILLER_35_225
*1173 FILLER_35_237
*1174 FILLER_35_249
*1175 FILLER_35_261
*1176 FILLER_35_273
*1177 FILLER_35_279
*1178 FILLER_35_281
*1179 FILLER_35_293
*1180 FILLER_35_3
*1181 FILLER_35_31
*1182 FILLER_35_45
*1183 FILLER_35_53
*1184 FILLER_35_61
*1185 FILLER_35_68
*1186 FILLER_35_78
*1187 FILLER_35_82
*1188 FILLER_35_88
*1189 FILLER_35_92
*1190 FILLER_35_96
*1191 FILLER_36_104
*1192 FILLER_36_116
*1193 FILLER_36_128
*1194 FILLER_36_141
*1195 FILLER_36_153
*1196 FILLER_36_165
*1197 FILLER_36_177
*1198 FILLER_36_189
*1199 FILLER_36_195
*1200 FILLER_36_197
*1201 FILLER_36_20
*1202 FILLER_36_209
*1203 FILLER_36_221
*1204 FILLER_36_233
*1205 FILLER_36_245
*1206 FILLER_36_251
*1207 FILLER_36_253
*1208 FILLER_36_265
*1209 FILLER_36_277
*1210 FILLER_36_289
*1211 FILLER_36_29
*1212 FILLER_36_297
*1213 FILLER_36_3
*1214 FILLER_36_52
*1215 FILLER_36_58
*1216 FILLER_36_79
*1217 FILLER_36_83
*1218 FILLER_36_85
*1219 FILLER_36_9
*1220 FILLER_36_92
*1221 FILLER_37_109
*1222 FILLER_37_116
*1223 FILLER_37_128
*1224 FILLER_37_140
*1225 FILLER_37_152
*1226 FILLER_37_164
*1227 FILLER_37_169
*1228 FILLER_37_181
*1229 FILLER_37_193
*1230 FILLER_37_205
*1231 FILLER_37_217
*1232 FILLER_37_223
*1233 FILLER_37_225
*1234 FILLER_37_23
*1235 FILLER_37_237
*1236 FILLER_37_249
*1237 FILLER_37_261
*1238 FILLER_37_273
*1239 FILLER_37_279
*1240 FILLER_37_281
*1241 FILLER_37_29
*1242 FILLER_37_293
*1243 FILLER_37_33
*1244 FILLER_37_39
*1245 FILLER_37_43
*1246 FILLER_37_51
*1247 FILLER_37_55
*1248 FILLER_37_57
*1249 FILLER_37_65
*1250 FILLER_37_74
*1251 FILLER_37_84
*1252 FILLER_37_97
*1253 FILLER_38_115
*1254 FILLER_38_127
*1255 FILLER_38_139
*1256 FILLER_38_141
*1257 FILLER_38_153
*1258 FILLER_38_165
*1259 FILLER_38_177
*1260 FILLER_38_189
*1261 FILLER_38_195
*1262 FILLER_38_197
*1263 FILLER_38_209
*1264 FILLER_38_21
*1265 FILLER_38_221
*1266 FILLER_38_233
*1267 FILLER_38_245
*1268 FILLER_38_251
*1269 FILLER_38_253
*1270 FILLER_38_265
*1271 FILLER_38_27
*1272 FILLER_38_277
*1273 FILLER_38_289
*1274 FILLER_38_29
*1275 FILLER_38_297
*1276 FILLER_38_3
*1277 FILLER_38_38
*1278 FILLER_38_42
*1279 FILLER_38_46
*1280 FILLER_38_70
*1281 FILLER_38_77
*1282 FILLER_38_83
*1283 FILLER_38_88
*1284 FILLER_38_9
*1285 FILLER_38_94
*1286 FILLER_39_10
*1287 FILLER_39_108
*1288 FILLER_39_113
*1289 FILLER_39_125
*1290 FILLER_39_137
*1291 FILLER_39_149
*1292 FILLER_39_16
*1293 FILLER_39_161
*1294 FILLER_39_167
*1295 FILLER_39_169
*1296 FILLER_39_181
*1297 FILLER_39_193
*1298 FILLER_39_20
*1299 FILLER_39_205
*1300 FILLER_39_217
*1301 FILLER_39_223
*1302 FILLER_39_225
*1303 FILLER_39_237
*1304 FILLER_39_249
*1305 FILLER_39_261
*1306 FILLER_39_273
*1307 FILLER_39_279
*1308 FILLER_39_281
*1309 FILLER_39_293
*1310 FILLER_39_44
*1311 FILLER_39_48
*1312 FILLER_39_52
*1313 FILLER_39_65
*1314 FILLER_39_73
*1315 FILLER_39_80
*1316 FILLER_39_91
*1317 FILLER_3_103
*1318 FILLER_3_111
*1319 FILLER_3_113
*1320 FILLER_3_125
*1321 FILLER_3_137
*1322 FILLER_3_149
*1323 FILLER_3_161
*1324 FILLER_3_167
*1325 FILLER_3_169
*1326 FILLER_3_181
*1327 FILLER_3_193
*1328 FILLER_3_205
*1329 FILLER_3_217
*1330 FILLER_3_223
*1331 FILLER_3_225
*1332 FILLER_3_237
*1333 FILLER_3_249
*1334 FILLER_3_261
*1335 FILLER_3_27
*1336 FILLER_3_273
*1337 FILLER_3_279
*1338 FILLER_3_281
*1339 FILLER_3_293
*1340 FILLER_3_3
*1341 FILLER_3_47
*1342 FILLER_3_55
*1343 FILLER_3_67
*1344 FILLER_3_79
*1345 FILLER_3_91
*1346 FILLER_40_100
*1347 FILLER_40_109
*1348 FILLER_40_121
*1349 FILLER_40_133
*1350 FILLER_40_139
*1351 FILLER_40_141
*1352 FILLER_40_153
*1353 FILLER_40_165
*1354 FILLER_40_177
*1355 FILLER_40_189
*1356 FILLER_40_195
*1357 FILLER_40_197
*1358 FILLER_40_209
*1359 FILLER_40_221
*1360 FILLER_40_233
*1361 FILLER_40_24
*1362 FILLER_40_245
*1363 FILLER_40_251
*1364 FILLER_40_253
*1365 FILLER_40_265
*1366 FILLER_40_277
*1367 FILLER_40_289
*1368 FILLER_40_297
*1369 FILLER_40_3
*1370 FILLER_40_34
*1371 FILLER_40_40
*1372 FILLER_40_61
*1373 FILLER_40_69
*1374 FILLER_40_76
*1375 FILLER_40_88
*1376 FILLER_40_92
*1377 FILLER_41_108
*1378 FILLER_41_113
*1379 FILLER_41_125
*1380 FILLER_41_137
*1381 FILLER_41_149
*1382 FILLER_41_15
*1383 FILLER_41_161
*1384 FILLER_41_167
*1385 FILLER_41_169
*1386 FILLER_41_181
*1387 FILLER_41_193
*1388 FILLER_41_205
*1389 FILLER_41_217
*1390 FILLER_41_223
*1391 FILLER_41_225
*1392 FILLER_41_237
*1393 FILLER_41_249
*1394 FILLER_41_261
*1395 FILLER_41_27
*1396 FILLER_41_273
*1397 FILLER_41_279
*1398 FILLER_41_281
*1399 FILLER_41_293
*1400 FILLER_41_3
*1401 FILLER_41_34
*1402 FILLER_41_45
*1403 FILLER_41_53
*1404 FILLER_41_60
*1405 FILLER_41_68
*1406 FILLER_41_73
*1407 FILLER_41_85
*1408 FILLER_41_89
*1409 FILLER_41_96
*1410 FILLER_42_114
*1411 FILLER_42_121
*1412 FILLER_42_133
*1413 FILLER_42_139
*1414 FILLER_42_141
*1415 FILLER_42_15
*1416 FILLER_42_153
*1417 FILLER_42_165
*1418 FILLER_42_177
*1419 FILLER_42_189
*1420 FILLER_42_195
*1421 FILLER_42_197
*1422 FILLER_42_209
*1423 FILLER_42_221
*1424 FILLER_42_233
*1425 FILLER_42_245
*1426 FILLER_42_251
*1427 FILLER_42_253
*1428 FILLER_42_265
*1429 FILLER_42_27
*1430 FILLER_42_277
*1431 FILLER_42_289
*1432 FILLER_42_297
*1433 FILLER_42_3
*1434 FILLER_42_36
*1435 FILLER_42_48
*1436 FILLER_42_80
*1437 FILLER_42_85
*1438 FILLER_42_93
*1439 FILLER_43_105
*1440 FILLER_43_111
*1441 FILLER_43_113
*1442 FILLER_43_125
*1443 FILLER_43_137
*1444 FILLER_43_149
*1445 FILLER_43_161
*1446 FILLER_43_167
*1447 FILLER_43_169
*1448 FILLER_43_181
*1449 FILLER_43_19
*1450 FILLER_43_193
*1451 FILLER_43_205
*1452 FILLER_43_217
*1453 FILLER_43_223
*1454 FILLER_43_225
*1455 FILLER_43_237
*1456 FILLER_43_249
*1457 FILLER_43_26
*1458 FILLER_43_261
*1459 FILLER_43_273
*1460 FILLER_43_279
*1461 FILLER_43_281
*1462 FILLER_43_293
*1463 FILLER_43_3
*1464 FILLER_43_35
*1465 FILLER_43_41
*1466 FILLER_43_52
*1467 FILLER_43_60
*1468 FILLER_43_66
*1469 FILLER_43_70
*1470 FILLER_43_77
*1471 FILLER_43_89
*1472 FILLER_43_9
*1473 FILLER_43_98
*1474 FILLER_44_109
*1475 FILLER_44_121
*1476 FILLER_44_133
*1477 FILLER_44_139
*1478 FILLER_44_141
*1479 FILLER_44_153
*1480 FILLER_44_165
*1481 FILLER_44_177
*1482 FILLER_44_189
*1483 FILLER_44_195
*1484 FILLER_44_197
*1485 FILLER_44_209
*1486 FILLER_44_221
*1487 FILLER_44_233
*1488 FILLER_44_24
*1489 FILLER_44_245
*1490 FILLER_44_251
*1491 FILLER_44_253
*1492 FILLER_44_265
*1493 FILLER_44_277
*1494 FILLER_44_289
*1495 FILLER_44_297
*1496 FILLER_44_3
*1497 FILLER_44_36
*1498 FILLER_44_46
*1499 FILLER_44_55
*1500 FILLER_44_79
*1501 FILLER_44_83
*1502 FILLER_44_85
*1503 FILLER_44_97
*1504 FILLER_45_108
*1505 FILLER_45_113
*1506 FILLER_45_125
*1507 FILLER_45_137
*1508 FILLER_45_149
*1509 FILLER_45_16
*1510 FILLER_45_161
*1511 FILLER_45_167
*1512 FILLER_45_169
*1513 FILLER_45_181
*1514 FILLER_45_193
*1515 FILLER_45_205
*1516 FILLER_45_217
*1517 FILLER_45_223
*1518 FILLER_45_225
*1519 FILLER_45_23
*1520 FILLER_45_237
*1521 FILLER_45_249
*1522 FILLER_45_261
*1523 FILLER_45_273
*1524 FILLER_45_279
*1525 FILLER_45_281
*1526 FILLER_45_293
*1527 FILLER_45_3
*1528 FILLER_45_32
*1529 FILLER_45_39
*1530 FILLER_45_52
*1531 FILLER_45_57
*1532 FILLER_45_72
*1533 FILLER_45_84
*1534 FILLER_45_9
*1535 FILLER_45_96
*1536 FILLER_46_109
*1537 FILLER_46_121
*1538 FILLER_46_133
*1539 FILLER_46_139
*1540 FILLER_46_141
*1541 FILLER_46_15
*1542 FILLER_46_153
*1543 FILLER_46_165
*1544 FILLER_46_177
*1545 FILLER_46_189
*1546 FILLER_46_195
*1547 FILLER_46_197
*1548 FILLER_46_209
*1549 FILLER_46_221
*1550 FILLER_46_233
*1551 FILLER_46_24
*1552 FILLER_46_245
*1553 FILLER_46_251
*1554 FILLER_46_253
*1555 FILLER_46_265
*1556 FILLER_46_277
*1557 FILLER_46_289
*1558 FILLER_46_29
*1559 FILLER_46_297
*1560 FILLER_46_3
*1561 FILLER_46_35
*1562 FILLER_46_41
*1563 FILLER_46_51
*1564 FILLER_46_59
*1565 FILLER_46_80
*1566 FILLER_46_85
*1567 FILLER_46_97
*1568 FILLER_47_101
*1569 FILLER_47_109
*1570 FILLER_47_113
*1571 FILLER_47_125
*1572 FILLER_47_137
*1573 FILLER_47_149
*1574 FILLER_47_161
*1575 FILLER_47_167
*1576 FILLER_47_169
*1577 FILLER_47_181
*1578 FILLER_47_193
*1579 FILLER_47_205
*1580 FILLER_47_217
*1581 FILLER_47_223
*1582 FILLER_47_225
*1583 FILLER_47_237
*1584 FILLER_47_249
*1585 FILLER_47_26
*1586 FILLER_47_261
*1587 FILLER_47_273
*1588 FILLER_47_279
*1589 FILLER_47_281
*1590 FILLER_47_293
*1591 FILLER_47_3
*1592 FILLER_47_52
*1593 FILLER_47_57
*1594 FILLER_47_65
*1595 FILLER_47_77
*1596 FILLER_47_89
*1597 FILLER_48_109
*1598 FILLER_48_121
*1599 FILLER_48_133
*1600 FILLER_48_139
*1601 FILLER_48_141
*1602 FILLER_48_153
*1603 FILLER_48_165
*1604 FILLER_48_177
*1605 FILLER_48_189
*1606 FILLER_48_195
*1607 FILLER_48_197
*1608 FILLER_48_209
*1609 FILLER_48_21
*1610 FILLER_48_221
*1611 FILLER_48_233
*1612 FILLER_48_245
*1613 FILLER_48_251
*1614 FILLER_48_253
*1615 FILLER_48_265
*1616 FILLER_48_27
*1617 FILLER_48_277
*1618 FILLER_48_289
*1619 FILLER_48_29
*1620 FILLER_48_297
*1621 FILLER_48_3
*1622 FILLER_48_40
*1623 FILLER_48_52
*1624 FILLER_48_59
*1625 FILLER_48_71
*1626 FILLER_48_83
*1627 FILLER_48_85
*1628 FILLER_48_9
*1629 FILLER_48_97
*1630 FILLER_49_105
*1631 FILLER_49_111
*1632 FILLER_49_113
*1633 FILLER_49_125
*1634 FILLER_49_137
*1635 FILLER_49_149
*1636 FILLER_49_15
*1637 FILLER_49_161
*1638 FILLER_49_167
*1639 FILLER_49_169
*1640 FILLER_49_181
*1641 FILLER_49_193
*1642 FILLER_49_205
*1643 FILLER_49_217
*1644 FILLER_49_223
*1645 FILLER_49_225
*1646 FILLER_49_237
*1647 FILLER_49_249
*1648 FILLER_49_261
*1649 FILLER_49_27
*1650 FILLER_49_273
*1651 FILLER_49_279
*1652 FILLER_49_281
*1653 FILLER_49_293
*1654 FILLER_49_3
*1655 FILLER_49_39
*1656 FILLER_49_51
*1657 FILLER_49_55
*1658 FILLER_49_57
*1659 FILLER_49_69
*1660 FILLER_49_81
*1661 FILLER_49_93
*1662 FILLER_4_109
*1663 FILLER_4_121
*1664 FILLER_4_133
*1665 FILLER_4_139
*1666 FILLER_4_141
*1667 FILLER_4_153
*1668 FILLER_4_165