*SPEF "ieee 1481-1999"
*DESIGN "user_module_347594509754827347"
*DATE "11:11:11 Fri 11 11, 1111"
*VENDOR "OpenRCX"
*PROGRAM "Parallel Extraction"
*VERSION "1.0"
*DESIGN_FLOW "NAME_SCOPE LOCAL" "PIN_CAP NONE"
*DIVIDER /
*DELIMITER :
*BUS_DELIMITER []
*T_UNIT 1 NS
*C_UNIT 1 PF
*R_UNIT 1 OHM
*L_UNIT 1 HENRY

*NAME_MAP
*1 io_in[0]
*2 io_in[1]
*3 io_in[2]
*4 io_in[3]
*5 io_in[4]
*6 io_in[5]
*7 io_in[6]
*8 io_in[7]
*9 io_out[0]
*10 io_out[1]
*11 io_out[2]
*12 io_out[3]
*13 io_out[4]
*14 io_out[5]
*15 io_out[6]
*16 io_out[7]
*19 _000_
*20 _001_
*21 _002_
*22 _003_
*23 _004_
*24 _005_
*25 _006_
*26 _007_
*27 _008_
*28 _009_
*29 _010_
*30 _011_
*31 _012_
*32 _013_
*33 _014_
*34 _015_
*35 _016_
*36 _017_
*37 _018_
*38 _019_
*39 _020_
*40 _021_
*41 _022_
*42 _023_
*43 _024_
*44 _025_
*45 _026_
*46 _027_
*47 _028_
*48 _029_
*49 _030_
*50 _031_
*51 _032_
*52 _033_
*53 _034_
*54 _035_
*55 _036_
*56 _037_
*57 _038_
*58 _039_
*59 _040_
*60 _041_
*61 _042_
*62 _043_
*63 _044_
*64 _045_
*65 _046_
*66 _047_
*67 _048_
*68 _049_
*69 _050_
*70 _051_
*71 _052_
*72 _053_
*73 _054_
*74 _055_
*75 _056_
*76 _057_
*77 _058_
*78 _059_
*79 _060_
*80 _061_
*81 _062_
*82 _063_
*83 _064_
*84 _065_
*85 _066_
*86 _067_
*87 _068_
*88 _069_
*89 _070_
*90 _071_
*91 _072_
*92 _073_
*93 _074_
*94 _075_
*95 _076_
*96 _077_
*97 _078_
*98 _079_
*99 _080_
*100 _081_
*101 _082_
*102 _083_
*103 _084_
*104 _085_
*105 _086_
*106 _087_
*107 _088_
*108 _089_
*109 _090_
*110 _091_
*111 _092_
*112 _093_
*113 _094_
*114 _095_
*115 _096_
*116 _097_
*117 _098_
*118 _099_
*119 _100_
*120 _101_
*121 _102_
*122 _103_
*123 _104_
*124 _105_
*125 _106_
*126 _107_
*127 _108_
*128 _109_
*129 _110_
*130 _111_
*131 _112_
*132 _113_
*133 _114_
*134 _115_
*135 _116_
*136 _117_
*137 _118_
*138 _119_
*139 _120_
*140 _121_
*141 _122_
*142 _123_
*143 _124_
*144 _125_
*145 _126_
*146 _127_
*147 _128_
*148 _129_
*149 _130_
*150 _131_
*151 _132_
*152 _133_
*153 _134_
*154 _135_
*155 _136_
*156 _137_
*157 _138_
*158 _139_
*159 _140_
*160 _141_
*161 _142_
*162 _143_
*163 _144_
*164 _145_
*165 _146_
*166 _147_
*167 _148_
*168 _149_
*169 _150_
*170 _151_
*171 _152_
*172 _153_
*173 _154_
*174 _155_
*175 _156_
*176 _157_
*177 _158_
*178 _159_
*179 _160_
*180 _161_
*181 _162_
*182 _163_
*183 _164_
*184 _165_
*185 _166_
*186 _167_
*187 _168_
*188 _169_
*189 _170_
*190 _171_
*191 _172_
*192 _173_
*193 _174_
*194 _175_
*195 _176_
*196 _177_
*197 _178_
*198 _179_
*199 _180_
*200 _181_
*201 _182_
*202 _183_
*203 _184_
*204 _185_
*205 _186_
*206 _187_
*207 _188_
*208 _189_
*209 _190_
*210 _191_
*211 _192_
*212 _193_
*213 _194_
*214 _195_
*215 _196_
*216 _197_
*217 _198_
*218 _199_
*219 _200_
*220 _201_
*221 _202_
*222 _203_
*223 _204_
*224 _205_
*225 _206_
*226 _207_
*227 _208_
*228 _209_
*229 _210_
*230 _211_
*231 _212_
*232 _213_
*233 _214_
*234 _215_
*235 _216_
*236 _217_
*237 _218_
*238 _219_
*239 _220_
*240 _221_
*241 _222_
*242 _223_
*243 _224_
*244 _225_
*245 _226_
*246 _227_
*247 _228_
*248 _229_
*249 _230_
*250 _231_
*251 _232_
*252 _233_
*253 _234_
*254 _235_
*255 _236_
*256 _237_
*257 _238_
*258 _239_
*259 _240_
*260 _241_
*261 _242_
*262 _243_
*263 _244_
*264 _245_
*265 _246_
*266 _247_
*267 _248_
*268 _249_
*269 _250_
*270 _251_
*271 _252_
*272 _253_
*273 _254_
*274 _255_
*275 _256_
*276 _257_
*277 _258_
*278 _259_
*279 _260_
*280 _261_
*281 _262_
*282 _263_
*283 _264_
*284 _265_
*285 _266_
*286 _267_
*287 _268_
*288 _269_
*289 _270_
*290 _271_
*291 _272_
*292 _273_
*293 _274_
*294 _275_
*295 _276_
*296 _277_
*297 _278_
*298 _279_
*299 _280_
*300 clknet_0_io_in[0]
*301 clknet_3_0__leaf_io_in[0]
*302 clknet_3_1__leaf_io_in[0]
*303 clknet_3_2__leaf_io_in[0]
*304 clknet_3_3__leaf_io_in[0]
*305 clknet_3_4__leaf_io_in[0]
*306 clknet_3_5__leaf_io_in[0]
*307 clknet_3_6__leaf_io_in[0]
*308 clknet_3_7__leaf_io_in[0]
*309 flipflop10\.q
*310 flipflop103\.q
*311 flipflop104\.q
*312 flipflop105\.q
*313 flipflop106\.q
*314 flipflop107\.q
*315 flipflop108\.q
*316 flipflop109\.q
*317 flipflop11\.q
*318 flipflop110\.q
*319 flipflop111\.q
*320 flipflop118\.q
*321 flipflop119\.q
*322 flipflop120\.q
*323 flipflop121\.q
*324 flipflop122\.q
*325 flipflop123\.q
*326 flipflop124\.q
*327 flipflop125\.q
*328 flipflop126\.q
*329 flipflop18\.q
*330 flipflop19\.q
*331 flipflop2\.q
*332 flipflop20\.q
*333 flipflop21\.q
*334 flipflop22\.q
*335 flipflop23\.q
*336 flipflop24\.q
*337 flipflop25\.q
*338 flipflop26\.q
*339 flipflop27\.q
*340 flipflop28\.q
*341 flipflop3\.q
*342 flipflop35\.q
*343 flipflop36\.q
*344 flipflop37\.q
*345 flipflop38\.q
*346 flipflop39\.q
*347 flipflop4\.q
*348 flipflop41\.q
*349 flipflop42\.q
*350 flipflop43\.q
*351 flipflop44\.q
*352 flipflop45\.q
*353 flipflop46\.q
*354 flipflop47\.q
*355 flipflop48\.q
*356 flipflop49\.q
*357 flipflop5\.q
*358 flipflop56\.q
*359 flipflop57\.q
*360 flipflop58\.q
*361 flipflop59\.q
*362 flipflop6\.q
*363 flipflop60\.q
*364 flipflop61\.q
*365 flipflop62\.q
*366 flipflop63\.q
*367 flipflop64\.q
*368 flipflop7\.q
*369 flipflop72\.q
*370 flipflop73\.q
*371 flipflop74\.q
*372 flipflop75\.q
*373 flipflop76\.q
*374 flipflop77\.q
*375 flipflop78\.q
*376 flipflop79\.q
*377 flipflop8\.q
*378 flipflop80\.q
*379 flipflop87\.q
*380 flipflop88\.q
*381 flipflop89\.q
*382 flipflop9\.q
*383 flipflop90\.q
*384 flipflop91\.q
*385 flipflop92\.q
*386 flipflop93\.q
*387 flipflop94\.q
*388 flipflop95\.q
*389 mux112\.out
*390 mux128\.out
*391 mux144\.out
*392 mux32\.out
*393 mux50\.out
*394 mux64\.out
*395 mux80\.out
*396 mux96\.out
*397 net1
*398 net2
*399 net3
*400 net4
*401 net5
*402 net6
*403 ANTENNA_0
*404 ANTENNA_1
*405 ANTENNA_2
*406 ANTENNA_3
*407 FILLER_0_101
*408 FILLER_0_108
*409 FILLER_0_129
*410 FILLER_0_136
*411 FILLER_0_145
*412 FILLER_0_157
*413 FILLER_0_165
*414 FILLER_0_169
*415 FILLER_0_181
*416 FILLER_0_193
*417 FILLER_0_197
*418 FILLER_0_209
*419 FILLER_0_221
*420 FILLER_0_225
*421 FILLER_0_237
*422 FILLER_0_24
*423 FILLER_0_249
*424 FILLER_0_253
*425 FILLER_0_265
*426 FILLER_0_277
*427 FILLER_0_281
*428 FILLER_0_29
*429 FILLER_0_293
*430 FILLER_0_3
*431 FILLER_0_35
*432 FILLER_0_52
*433 FILLER_0_7
*434 FILLER_0_73
*435 FILLER_0_81
*436 FILLER_10_109
*437 FILLER_10_113
*438 FILLER_10_119
*439 FILLER_10_134
*440 FILLER_10_147
*441 FILLER_10_159
*442 FILLER_10_171
*443 FILLER_10_183
*444 FILLER_10_19
*445 FILLER_10_195
*446 FILLER_10_197
*447 FILLER_10_209
*448 FILLER_10_221
*449 FILLER_10_233
*450 FILLER_10_245
*451 FILLER_10_251
*452 FILLER_10_253
*453 FILLER_10_265
*454 FILLER_10_27
*455 FILLER_10_277
*456 FILLER_10_289
*457 FILLER_10_29
*458 FILLER_10_297
*459 FILLER_10_33
*460 FILLER_10_50
*461 FILLER_10_70
*462 FILLER_10_82
*463 FILLER_10_85
*464 FILLER_11_107
*465 FILLER_11_111
*466 FILLER_11_113
*467 FILLER_11_124
*468 FILLER_11_132
*469 FILLER_11_143
*470 FILLER_11_15
*471 FILLER_11_151
*472 FILLER_11_161
*473 FILLER_11_167
*474 FILLER_11_169
*475 FILLER_11_177
*476 FILLER_11_189
*477 FILLER_11_201
*478 FILLER_11_213
*479 FILLER_11_221
*480 FILLER_11_225
*481 FILLER_11_237
*482 FILLER_11_249
*483 FILLER_11_261
*484 FILLER_11_273
*485 FILLER_11_279
*486 FILLER_11_281
*487 FILLER_11_293
*488 FILLER_11_3
*489 FILLER_11_36
*490 FILLER_11_43
*491 FILLER_11_52
*492 FILLER_11_62
*493 FILLER_11_70
*494 FILLER_11_93
*495 FILLER_12_101
*496 FILLER_12_107
*497 FILLER_12_124
*498 FILLER_12_133
*499 FILLER_12_139
*500 FILLER_12_144
*501 FILLER_12_151
*502 FILLER_12_158
*503 FILLER_12_166
*504 FILLER_12_173
*505 FILLER_12_179
*506 FILLER_12_183
*507 FILLER_12_195
*508 FILLER_12_197
*509 FILLER_12_209
*510 FILLER_12_221
*511 FILLER_12_233
*512 FILLER_12_24
*513 FILLER_12_245
*514 FILLER_12_251
*515 FILLER_12_253
*516 FILLER_12_265
*517 FILLER_12_277
*518 FILLER_12_289
*519 FILLER_12_297
*520 FILLER_12_3
*521 FILLER_12_34
*522 FILLER_12_56
*523 FILLER_12_7
*524 FILLER_12_78
*525 FILLER_13_104
*526 FILLER_13_113
*527 FILLER_13_118
*528 FILLER_13_127
*529 FILLER_13_131
*530 FILLER_13_136
*531 FILLER_13_145
*532 FILLER_13_153
*533 FILLER_13_165
*534 FILLER_13_169
*535 FILLER_13_178
*536 FILLER_13_190
*537 FILLER_13_20
*538 FILLER_13_202
*539 FILLER_13_214
*540 FILLER_13_222
*541 FILLER_13_225
*542 FILLER_13_237
*543 FILLER_13_24
*544 FILLER_13_249
*545 FILLER_13_261
*546 FILLER_13_273
*547 FILLER_13_279
*548 FILLER_13_281
*549 FILLER_13_293
*550 FILLER_13_3
*551 FILLER_13_41
*552 FILLER_13_50
*553 FILLER_13_57
*554 FILLER_13_63
*555 FILLER_13_8
*556 FILLER_13_84
*557 FILLER_14_113
*558 FILLER_14_122
*559 FILLER_14_129
*560 FILLER_14_136
*561 FILLER_14_146
*562 FILLER_14_15
*563 FILLER_14_152
*564 FILLER_14_159
*565 FILLER_14_170
*566 FILLER_14_182
*567 FILLER_14_194
*568 FILLER_14_197
*569 FILLER_14_209
*570 FILLER_14_221
*571 FILLER_14_233
*572 FILLER_14_245
*573 FILLER_14_251
*574 FILLER_14_253
*575 FILLER_14_265
*576 FILLER_14_27
*577 FILLER_14_277
*578 FILLER_14_289
*579 FILLER_14_297
*580 FILLER_14_3
*581 FILLER_14_32
*582 FILLER_14_60
*583 FILLER_14_80
*584 FILLER_14_85
*585 FILLER_15_108
*586 FILLER_15_113
*587 FILLER_15_119
*588 FILLER_15_123
*589 FILLER_15_148
*590 FILLER_15_155
*591 FILLER_15_162
*592 FILLER_15_169
*593 FILLER_15_181
*594 FILLER_15_185
*595 FILLER_15_192
*596 FILLER_15_204
*597 FILLER_15_216
*598 FILLER_15_225
*599 FILLER_15_237
*600 FILLER_15_249
*601 FILLER_15_261
*602 FILLER_15_273
*603 FILLER_15_279
*604 FILLER_15_28
*605 FILLER_15_281
*606 FILLER_15_293
*607 FILLER_15_3
*608 FILLER_15_52
*609 FILLER_15_57
*610 FILLER_15_62
*611 FILLER_15_8
*612 FILLER_15_82
*613 FILLER_15_90
*614 FILLER_16_115
*615 FILLER_16_127
*616 FILLER_16_131
*617 FILLER_16_139
*618 FILLER_16_141
*619 FILLER_16_145
*620 FILLER_16_149
*621 FILLER_16_156
*622 FILLER_16_169
*623 FILLER_16_181
*624 FILLER_16_193
*625 FILLER_16_197
*626 FILLER_16_209
*627 FILLER_16_221
*628 FILLER_16_233
*629 FILLER_16_24
*630 FILLER_16_245
*631 FILLER_16_251
*632 FILLER_16_253
*633 FILLER_16_265
*634 FILLER_16_277
*635 FILLER_16_289
*636 FILLER_16_29
*637 FILLER_16_297
*638 FILLER_16_3
*639 FILLER_16_39
*640 FILLER_16_59
*641 FILLER_16_7
*642 FILLER_16_80
*643 FILLER_16_85
*644 FILLER_16_97
*645 FILLER_17_105
*646 FILLER_17_111
*647 FILLER_17_116
*648 FILLER_17_122
*649 FILLER_17_144
*650 FILLER_17_156
*651 FILLER_17_169
*652 FILLER_17_175
*653 FILLER_17_179
*654 FILLER_17_191
*655 FILLER_17_20
*656 FILLER_17_203
*657 FILLER_17_215
*658 FILLER_17_223
*659 FILLER_17_225
*660 FILLER_17_237
*661 FILLER_17_249
*662 FILLER_17_261
*663 FILLER_17_273
*664 FILLER_17_279
*665 FILLER_17_281
*666 FILLER_17_293
*667 FILLER_17_3
*668 FILLER_17_32
*669 FILLER_17_52
*670 FILLER_17_57
*671 FILLER_17_69
*672 FILLER_17_93
*673 FILLER_18_110
*674 FILLER_18_122
*675 FILLER_18_136
*676 FILLER_18_141
*677 FILLER_18_153
*678 FILLER_18_165
*679 FILLER_18_173
*680 FILLER_18_178
*681 FILLER_18_19
*682 FILLER_18_190
*683 FILLER_18_197
*684 FILLER_18_209
*685 FILLER_18_221
*686 FILLER_18_23
*687 FILLER_18_233
*688 FILLER_18_245
*689 FILLER_18_251
*690 FILLER_18_253
*691 FILLER_18_265
*692 FILLER_18_27
*693 FILLER_18_277
*694 FILLER_18_289
*695 FILLER_18_29
*696 FILLER_18_297
*697 FILLER_18_48
*698 FILLER_18_68
*699 FILLER_18_77
*700 FILLER_18_83
*701 FILLER_18_85
*702 FILLER_18_93
*703 FILLER_19_108
*704 FILLER_19_11
*705 FILLER_19_122
*706 FILLER_19_131
*707 FILLER_19_139
*708 FILLER_19_144
*709 FILLER_19_15
*710 FILLER_19_156
*711 FILLER_19_169
*712 FILLER_19_181
*713 FILLER_19_190
*714 FILLER_19_202
*715 FILLER_19_214
*716 FILLER_19_222
*717 FILLER_19_225
*718 FILLER_19_237
*719 FILLER_19_249
*720 FILLER_19_261
*721 FILLER_19_273
*722 FILLER_19_279
*723 FILLER_19_281
*724 FILLER_19_293
*725 FILLER_19_3
*726 FILLER_19_32
*727 FILLER_19_52
*728 FILLER_19_73
*729 FILLER_19_81
*730 FILLER_19_88
*731 FILLER_1_101
*732 FILLER_1_108
*733 FILLER_1_129
*734 FILLER_1_143
*735 FILLER_1_152
*736 FILLER_1_159
*737 FILLER_1_167
*738 FILLER_1_172
*739 FILLER_1_176
*740 FILLER_1_187
*741 FILLER_1_196
*742 FILLER_1_208
*743 FILLER_1_220
*744 FILLER_1_225
*745 FILLER_1_237
*746 FILLER_1_249
*747 FILLER_1_26
*748 FILLER_1_261
*749 FILLER_1_273
*750 FILLER_1_279
*751 FILLER_1_281
*752 FILLER_1_293
*753 FILLER_1_46
*754 FILLER_1_54
*755 FILLER_1_57
*756 FILLER_1_6
*757 FILLER_1_61
*758 FILLER_1_78
*759 FILLER_1_84
*760 FILLER_20_101
*761 FILLER_20_113
*762 FILLER_20_121
*763 FILLER_20_127
*764 FILLER_20_134
*765 FILLER_20_141
*766 FILLER_20_157
*767 FILLER_20_169
*768 FILLER_20_181
*769 FILLER_20_193
*770 FILLER_20_197
*771 FILLER_20_209
*772 FILLER_20_221
*773 FILLER_20_233
*774 FILLER_20_24
*775 FILLER_20_245
*776 FILLER_20_251
*777 FILLER_20_253
*778 FILLER_20_265
*779 FILLER_20_277
*780 FILLER_20_289
*781 FILLER_20_29
*782 FILLER_20_297
*783 FILLER_20_3
*784 FILLER_20_35
*785 FILLER_20_52
*786 FILLER_20_7
*787 FILLER_20_80
*788 FILLER_21_108
*789 FILLER_21_113
*790 FILLER_21_121
*791 FILLER_21_127
*792 FILLER_21_133
*793 FILLER_21_139
*794 FILLER_21_15
*795 FILLER_21_150
*796 FILLER_21_162
*797 FILLER_21_169
*798 FILLER_21_181
*799 FILLER_21_193
*800 FILLER_21_202
*801 FILLER_21_214
*802 FILLER_21_222
*803 FILLER_21_225
*804 FILLER_21_237
*805 FILLER_21_249
*806 FILLER_21_261
*807 FILLER_21_273
*808 FILLER_21_279
*809 FILLER_21_281
*810 FILLER_21_293
*811 FILLER_21_3
*812 FILLER_21_36
*813 FILLER_21_48
*814 FILLER_21_57
*815 FILLER_21_69
*816 FILLER_21_81
*817 FILLER_21_88
*818 FILLER_21_9
*819 FILLER_22_106
*820 FILLER_22_118
*821 FILLER_22_128
*822 FILLER_22_135
*823 FILLER_22_139
*824 FILLER_22_149
*825 FILLER_22_161
*826 FILLER_22_173
*827 FILLER_22_181
*828 FILLER_22_186
*829 FILLER_22_19
*830 FILLER_22_194
*831 FILLER_22_197
*832 FILLER_22_209
*833 FILLER_22_221
*834 FILLER_22_233
*835 FILLER_22_245
*836 FILLER_22_251
*837 FILLER_22_253
*838 FILLER_22_265
*839 FILLER_22_27
*840 FILLER_22_277
*841 FILLER_22_289
*842 FILLER_22_29
*843 FILLER_22_297
*844 FILLER_22_41
*845 FILLER_22_58
*846 FILLER_22_80
*847 FILLER_22_85
*848 FILLER_22_94
*849 FILLER_23_108
*850 FILLER_23_113
*851 FILLER_23_121
*852 FILLER_23_134
*853 FILLER_23_14
*854 FILLER_23_146
*855 FILLER_23_154
*856 FILLER_23_158
*857 FILLER_23_166
*858 FILLER_23_169
*859 FILLER_23_180
*860 FILLER_23_192
*861 FILLER_23_204
*862 FILLER_23_216
*863 FILLER_23_225
*864 FILLER_23_237
*865 FILLER_23_249
*866 FILLER_23_261
*867 FILLER_23_273
*868 FILLER_23_279
*869 FILLER_23_281
*870 FILLER_23_293
*871 FILLER_23_3
*872 FILLER_23_34
*873 FILLER_23_46
*874 FILLER_23_54
*875 FILLER_23_57
*876 FILLER_23_68
*877 FILLER_23_88
*878 FILLER_24_106
*879 FILLER_24_11
*880 FILLER_24_114
*881 FILLER_24_122
*882 FILLER_24_126
*883 FILLER_24_136
*884 FILLER_24_141
*885 FILLER_24_153
*886 FILLER_24_165
*887 FILLER_24_177
*888 FILLER_24_18
*889 FILLER_24_189
*890 FILLER_24_195
*891 FILLER_24_197
*892 FILLER_24_209
*893 FILLER_24_221
*894 FILLER_24_233
*895 FILLER_24_245
*896 FILLER_24_251
*897 FILLER_24_253
*898 FILLER_24_26
*899 FILLER_24_265
*900 FILLER_24_277
*901 FILLER_24_289
*902 FILLER_24_29
*903 FILLER_24_297
*904 FILLER_24_3
*905 FILLER_24_41
*906 FILLER_24_60
*907 FILLER_24_66
*908 FILLER_24_76
*909 FILLER_24_89
*910 FILLER_24_99
*911 FILLER_25_101
*912 FILLER_25_109
*913 FILLER_25_11
*914 FILLER_25_117
*915 FILLER_25_123
*916 FILLER_25_128
*917 FILLER_25_140
*918 FILLER_25_150
*919 FILLER_25_162
*920 FILLER_25_169
*921 FILLER_25_177
*922 FILLER_25_183
*923 FILLER_25_188
*924 FILLER_25_19
*925 FILLER_25_200
*926 FILLER_25_212
*927 FILLER_25_225
*928 FILLER_25_237
*929 FILLER_25_249
*930 FILLER_25_261
*931 FILLER_25_273
*932 FILLER_25_279
*933 FILLER_25_281
*934 FILLER_25_293
*935 FILLER_25_3
*936 FILLER_25_36
*937 FILLER_25_43
*938 FILLER_25_52
*939 FILLER_25_57
*940 FILLER_25_64
*941 FILLER_25_76
*942 FILLER_26_101
*943 FILLER_26_109
*944 FILLER_26_118
*945 FILLER_26_126
*946 FILLER_26_136
*947 FILLER_26_141
*948 FILLER_26_150
*949 FILLER_26_162
*950 FILLER_26_174
*951 FILLER_26_185
*952 FILLER_26_19
*953 FILLER_26_193
*954 FILLER_26_197
*955 FILLER_26_209
*956 FILLER_26_221
*957 FILLER_26_233
*958 FILLER_26_245
*959 FILLER_26_251
*960 FILLER_26_253
*961 FILLER_26_265
*962 FILLER_26_27
*963 FILLER_26_277
*964 FILLER_26_289
*965 FILLER_26_297
*966 FILLER_26_38
*967 FILLER_26_46
*968 FILLER_26_53
*969 FILLER_26_70
*970 FILLER_26_77
*971 FILLER_26_83
*972 FILLER_26_85
*973 FILLER_26_94
*974 FILLER_27_101
*975 FILLER_27_109
*976 FILLER_27_116
*977 FILLER_27_128
*978 FILLER_27_133
*979 FILLER_27_145
*980 FILLER_27_153
*981 FILLER_27_160
*982 FILLER_27_169
*983 FILLER_27_181
*984 FILLER_27_190
*985 FILLER_27_20
*986 FILLER_27_202
*987 FILLER_27_214
*988 FILLER_27_222
*989 FILLER_27_225
*990 FILLER_27_237
*991 FILLER_27_249
*992 FILLER_27_261
*993 FILLER_27_273
*994 FILLER_27_279
*995 FILLER_27_281
*996 FILLER_27_29
*997 FILLER_27_293
*998 FILLER_27_3
*999 FILLER_27_42
*1000 FILLER_27_52
*1001 FILLER_27_63
*1002 FILLER_27_72
*1003 FILLER_27_79
*1004 FILLER_27_87
*1005 FILLER_27_9
*1006 FILLER_27_94
*1007 FILLER_28_102
*1008 FILLER_28_106
*1009 FILLER_28_112
*1010 FILLER_28_120
*1011 FILLER_28_126
*1012 FILLER_28_136
*1013 FILLER_28_146
*1014 FILLER_28_15
*1015 FILLER_28_161
*1016 FILLER_28_165
*1017 FILLER_28_170
*1018 FILLER_28_182
*1019 FILLER_28_194
*1020 FILLER_28_197
*1021 FILLER_28_209
*1022 FILLER_28_221
*1023 FILLER_28_233
*1024 FILLER_28_24
*1025 FILLER_28_245
*1026 FILLER_28_251
*1027 FILLER_28_253
*1028 FILLER_28_265
*1029 FILLER_28_277
*1030 FILLER_28_289
*1031 FILLER_28_29
*1032 FILLER_28_297
*1033 FILLER_28_3
*1034 FILLER_28_33
*1035 FILLER_28_39
*1036 FILLER_28_46
*1037 FILLER_28_55
*1038 FILLER_28_67
*1039 FILLER_28_79
*1040 FILLER_28_83
*1041 FILLER_28_85
*1042 FILLER_28_9
*1043 FILLER_28_91
*1044 FILLER_29_100
*1045 FILLER_29_113
*1046 FILLER_29_119
*1047 FILLER_29_131
*1048 FILLER_29_14
*1049 FILLER_29_142
*1050 FILLER_29_155
*1051 FILLER_29_163
*1052 FILLER_29_167
*1053 FILLER_29_169
*1054 FILLER_29_181
*1055 FILLER_29_193
*1056 FILLER_29_205
*1057 FILLER_29_217
*1058 FILLER_29_223
*1059 FILLER_29_225
*1060 FILLER_29_23
*1061 FILLER_29_237
*1062 FILLER_29_249
*1063 FILLER_29_261
*1064 FILLER_29_273
*1065 FILLER_29_279
*1066 FILLER_29_281
*1067 FILLER_29_29
*1068 FILLER_29_293
*1069 FILLER_29_3
*1070 FILLER_29_33
*1071 FILLER_29_43
*1072 FILLER_29_55
*1073 FILLER_29_62
*1074 FILLER_29_69
*1075 FILLER_29_8
*1076 FILLER_29_80
*1077 FILLER_29_92
*1078 FILLER_29_96
*1079 FILLER_2_115
*1080 FILLER_2_129
*1081 FILLER_2_136
*1082 FILLER_2_144
*1083 FILLER_2_156
*1084 FILLER_2_168
*1085 FILLER_2_180
*1086 FILLER_2_192
*1087 FILLER_2_197
*1088 FILLER_2_203
*1089 FILLER_2_215
*1090 FILLER_2_227
*1091 FILLER_2_239
*1092 FILLER_2_24
*1093 FILLER_2_251
*1094 FILLER_2_253
*1095 FILLER_2_265
*1096 FILLER_2_277
*1097 FILLER_2_289
*1098 FILLER_2_29
*1099 FILLER_2_297
*1100 FILLER_2_3
*1101 FILLER_2_35
*1102 FILLER_2_52
*1103 FILLER_2_7
*1104 FILLER_2_76
*1105 FILLER_2_90
*1106 FILLER_2_98
*1107 FILLER_30_100
*1108 FILLER_30_104
*1109 FILLER_30_111
*1110 FILLER_30_123
*1111 FILLER_30_132
*1112 FILLER_30_141
*1113 FILLER_30_15
*1114 FILLER_30_154
*1115 FILLER_30_166
*1116 FILLER_30_178
*1117 FILLER_30_190
*1118 FILLER_30_197
*1119 FILLER_30_209
*1120 FILLER_30_221
*1121 FILLER_30_233
*1122 FILLER_30_245
*1123 FILLER_30_251
*1124 FILLER_30_253
*1125 FILLER_30_265
*1126 FILLER_30_27
*1127 FILLER_30_277
*1128 FILLER_30_289
*1129 FILLER_30_297
*1130 FILLER_30_3
*1131 FILLER_30_32
*1132 FILLER_30_40
*1133 FILLER_30_46
*1134 FILLER_30_55
*1135 FILLER_30_68
*1136 FILLER_30_79
*1137 FILLER_30_83
*1138 FILLER_30_85
*1139 FILLER_30_89
*1140 FILLER_30_94
*1141 FILLER_31_105
*1142 FILLER_31_111
*1143 FILLER_31_117
*1144 FILLER_31_124
*1145 FILLER_31_136
*1146 FILLER_31_140
*1147 FILLER_31_145
*1148 FILLER_31_15
*1149 FILLER_31_157
*1150 FILLER_31_165
*1151 FILLER_31_169
*1152 FILLER_31_181
*1153 FILLER_31_19
*1154 FILLER_31_193
*1155 FILLER_31_205
*1156 FILLER_31_217
*1157 FILLER_31_223
*1158 FILLER_31_225
*1159 FILLER_31_237
*1160 FILLER_31_249
*1161 FILLER_31_261
*1162 FILLER_31_27
*1163 FILLER_31_273
*1164 FILLER_31_279
*1165 FILLER_31_281
*1166 FILLER_31_293
*1167 FILLER_31_3
*1168 FILLER_31_38
*1169 FILLER_31_46
*1170 FILLER_31_54
*1171 FILLER_31_60
*1172 FILLER_31_69
*1173 FILLER_31_76
*1174 FILLER_31_84
*1175 FILLER_31_90
*1176 FILLER_31_98
*1177 FILLER_32_100
*1178 FILLER_32_112
*1179 FILLER_32_124
*1180 FILLER_32_133
*1181 FILLER_32_139
*1182 FILLER_32_141
*1183 FILLER_32_149
*1184 FILLER_32_155
*1185 FILLER_32_167
*1186 FILLER_32_179
*1187 FILLER_32_191
*1188 FILLER_32_195
*1189 FILLER_32_197
*1190 FILLER_32_209
*1191 FILLER_32_21
*1192 FILLER_32_221
*1193 FILLER_32_233
*1194 FILLER_32_245
*1195 FILLER_32_251
*1196 FILLER_32_253
*1197 FILLER_32_265
*1198 FILLER_32_27
*1199 FILLER_32_277
*1200 FILLER_32_289
*1201 FILLER_32_297
*1202 FILLER_32_3
*1203 FILLER_32_38
*1204 FILLER_32_44
*1205 FILLER_32_50
*1206 FILLER_32_59
*1207 FILLER_32_63
*1208 FILLER_32_67
*1209 FILLER_32_78
*1210 FILLER_32_85
*1211 FILLER_32_91
*1212 FILLER_33_100
*1213 FILLER_33_11
*1214 FILLER_33_113
*1215 FILLER_33_125
*1216 FILLER_33_133
*1217 FILLER_33_141
*1218 FILLER_33_15
*1219 FILLER_33_153
*1220 FILLER_33_165
*1221 FILLER_33_169
*1222 FILLER_33_181
*1223 FILLER_33_193
*1224 FILLER_33_205
*1225 FILLER_33_217
*1226 FILLER_33_223
*1227 FILLER_33_225
*1228 FILLER_33_237
*1229 FILLER_33_24
*1230 FILLER_33_249
*1231 FILLER_33_261
*1232 FILLER_33_273
*1233 FILLER_33_279
*1234 FILLER_33_281
*1235 FILLER_33_293
*1236 FILLER_33_3
*1237 FILLER_33_36
*1238 FILLER_33_52
*1239 FILLER_33_57
*1240 FILLER_33_68
*1241 FILLER_33_72
*1242 FILLER_33_81
*1243 FILLER_33_89
*1244 FILLER_34_103
*1245 FILLER_34_111
*1246 FILLER_34_118
*1247 FILLER_34_130
*1248 FILLER_34_138
*1249 FILLER_34_141
*1250 FILLER_34_153
*1251 FILLER_34_165
*1252 FILLER_34_169
*1253 FILLER_34_17
*1254 FILLER_34_173
*1255 FILLER_34_185
*1256 FILLER_34_193
*1257 FILLER_34_197
*1258 FILLER_34_209
*1259 FILLER_34_221
*1260 FILLER_34_233
*1261 FILLER_34_245
*1262 FILLER_34_25
*1263 FILLER_34_251
*1264 FILLER_34_253
*1265 FILLER_34_265
*1266 FILLER_34_277
*1267 FILLER_34_289
*1268 FILLER_34_29
*1269 FILLER_34_297
*1270 FILLER_34_3
*1271 FILLER_34_37
*1272 FILLER_34_49
*1273 FILLER_34_61
*1274 FILLER_34_74
*1275 FILLER_34_82
*1276 FILLER_34_85
*1277 FILLER_34_9
*1278 FILLER_34_93
*1279 FILLER_34_99
*1280 FILLER_35_104
*1281 FILLER_35_113
*1282 FILLER_35_125
*1283 FILLER_35_137
*1284 FILLER_35_149
*1285 FILLER_35_16
*1286 FILLER_35_161
*1287 FILLER_35_167
*1288 FILLER_35_169
*1289 FILLER_35_181
*1290 FILLER_35_193
*1291 FILLER_35_205
*1292 FILLER_35_217
*1293 FILLER_35_223
*1294 FILLER_35_225
*1295 FILLER_35_237
*1296 FILLER_35_24
*1297 FILLER_35_249
*1298 FILLER_35_261
*1299 FILLER_35_273
*1300 FILLER_35_279
*1301 FILLER_35_281
*1302 FILLER_35_293
*1303 FILLER_35_3
*1304 FILLER_35_31
*1305 FILLER_35_43
*1306 FILLER_35_48
*1307 FILLER_35_57
*1308 FILLER_35_69
*1309 FILLER_35_75
*1310 FILLER_35_79
*1311 FILLER_35_9
*1312 FILLER_35_96
*1313 FILLER_36_105
*1314 FILLER_36_117
*1315 FILLER_36_129
*1316 FILLER_36_13
*1317 FILLER_36_137
*1318 FILLER_36_141
*1319 FILLER_36_153
*1320 FILLER_36_165
*1321 FILLER_36_177
*1322 FILLER_36_189
*1323 FILLER_36_195
*1324 FILLER_36_197
*1325 FILLER_36_209
*1326 FILLER_36_221
*1327 FILLER_36_233
*1328 FILLER_36_245
*1329 FILLER_36_25
*1330 FILLER_36_251
*1331 FILLER_36_253
*1332 FILLER_36_265
*1333 FILLER_36_277
*1334 FILLER_36_289
*1335 FILLER_36_29
*1336 FILLER_36_297
*1337 FILLER_36_3
*1338 FILLER_36_41
*1339 FILLER_36_50
*1340 FILLER_36_62
*1341 FILLER_36_74
*1342 FILLER_36_82
*1343 FILLER_36_85
*1344 FILLER_36_9
*1345 FILLER_36_97
*1346 FILLER_37_104
*1347 FILLER_37_113
*1348 FILLER_37_125
*1349 FILLER_37_137
*1350 FILLER_37_149
*1351 FILLER_37_15
*1352 FILLER_37_161
*1353 FILLER_37_167
*1354 FILLER_37_169
*1355 FILLER_37_181
*1356 FILLER_37_193
*1357 FILLER_37_205
*1358 FILLER_37_217
*1359 FILLER_37_223
*1360 FILLER_37_225
*1361 FILLER_37_237
*1362 FILLER_37_249
*1363 FILLER_37_261
*1364 FILLER_37_27
*1365 FILLER_37_273
*1366 FILLER_37_279
*1367 FILLER_37_281
*1368 FILLER_37_293
*1369 FILLER_37_3
*1370 FILLER_37_39
*1371 FILLER_37_51
*1372 FILLER_37_55
*1373 FILLER_37_57
*1374 FILLER_37_69
*1375 FILLER_37_75
*1376 FILLER_37_81
*1377 FILLER_37_90
*1378 FILLER_37_98
*1379 FILLER_38_109
*1380 FILLER_38_115
*1381 FILLER_38_127
*1382 FILLER_38_139
*1383 FILLER_38_141
*1384 FILLER_38_15
*1385 FILLER_38_153
*1386 FILLER_38_162
*1387 FILLER_38_174
*1388 FILLER_38_186
*1389 FILLER_38_194
*1390 FILLER_38_197
*1391 FILLER_38_209
*1392 FILLER_38_221
*1393 FILLER_38_23
*1394 FILLER_38_233
*1395 FILLER_38_245
*1396 FILLER_38_251
*1397 FILLER_38_253
*1398 FILLER_38_265
*1399 FILLER_38_27
*1400 FILLER_38_277
*1401 FILLER_38_289
*1402 FILLER_38_29
*1403 FILLER_38_297
*1404 FILLER_38_3
*1405 FILLER_38_41
*1406 FILLER_38_53
*1407 FILLER_38_61
*1408 FILLER_38_72
*1409 FILLER_38_85
*1410 FILLER_38_97
*1411 FILLER_39_102
*1412 FILLER_39_110
*1413 FILLER_39_113
*1414 FILLER_39_125
*1415 FILLER_39_137
*1416 FILLER_39_14
*1417 FILLER_39_149
*1418 FILLER_39_161
*1419 FILLER_39_167
*1420 FILLER_39_169
*1421 FILLER_39_181
*1422 FILLER_39_193
*1423 FILLER_39_205
*1424 FILLER_39_217
*1425 FILLER_39_223
*1426 FILLER_39_225
*1427 FILLER_39_237
*1428 FILLER_39_249
*1429 FILLER_39_26
*1430 FILLER_39_261
*1431 FILLER_39_273
*1432 FILLER_39_279
*1433 FILLER_39_281
*1434 FILLER_39_293
*1435 FILLER_39_3
*1436 FILLER_39_38
*1437 FILLER_39_50
*1438 FILLER_39_57
*1439 FILLER_39_67
*1440 FILLER_39_78
*1441 FILLER_39_9
*1442 FILLER_39_90
*1443 FILLER_3_101
*1444 FILLER_3_109
*1445 FILLER_3_11
*1446 FILLER_3_116
*1447 FILLER_3_120
*1448 FILLER_3_127
*1449 FILLER_3_137
*1450 FILLER_3_149
*1451 FILLER_3_15
*1452 FILLER_3_153
*1453 FILLER_3_157
*1454 FILLER_3_165
*1455 FILLER_3_169
*1456 FILLER_3_181
*1457 FILLER_3_188
*1458 FILLER_3_200
*1459 FILLER_3_212
*1460 FILLER_3_225
*1461 FILLER_3_237
*1462 FILLER_3_249
*1463 FILLER_3_261
*1464 FILLER_3_273
*1465 FILLER_3_279
*1466 FILLER_3_281
*1467 FILLER_3_293
*1468 FILLER_3_3
*1469 FILLER_3_36
*1470 FILLER_3_45
*1471 FILLER_3_53
*1472 FILLER_3_63
*1473 FILLER_3_71
*1474 FILLER_3_93
*1475 FILLER_40_106
*1476 FILLER_40_118
*1477 FILLER_40_122
*1478 FILLER_40_126
*1479 FILLER_40_138
*1480 FILLER_40_141
*1481 FILLER_40_15
*1482 FILLER_40_153
*1483 FILLER_40_165
*1484 FILLER_40_177
*1485 FILLER_40_189
*1486 FILLER_40_195
*1487 FILLER_40_197
*1488 FILLER_40_209
*1489 FILLER_40_221
*1490 FILLER_40_233
*1491 FILLER_40_245
*1492 FILLER_40_251
*1493 FILLER_40_253
*1494 FILLER_40_265
*1495 FILLER_40_27
*1496 FILLER_40_277
*1497 FILLER_40_289
*1498 FILLER_40_29
*1499 FILLER_40_297
*1500 FILLER_40_3
*1501 FILLER_40_41
*1502 FILLER_40_53
*1503 FILLER_40_65
*1504 FILLER_40_77
*1505 FILLER_40_83
*1506 FILLER_40_94
*1507 FILLER_41_105
*1508 FILLER_41_111
*1509 FILLER_41_113
*1510 FILLER_41_120
*1511 FILLER_41_132
*1512 FILLER_41_144
*1513 FILLER_41_15
*1514 FILLER_41_156
*1515 FILLER_41_169
*1516 FILLER_41_181
*1517 FILLER_41_193
*1518 FILLER_41_205
*1519 FILLER_41_217
*1520 FILLER_41_223
*1521 FILLER_41_225
*1522 FILLER_41_237
*1523 FILLER_41_249
*1524 FILLER_41_261
*1525 FILLER_41_27
*1526 FILLER_41_273
*1527 FILLER_41_279
*1528 FILLER_41_281
*1529 FILLER_41_293
*1530 FILLER_41_3
*1531 FILLER_41_39
*1532 FILLER_41_51
*1533 FILLER_41_55
*1534 FILLER_41_57
*1535 FILLER_41_69
*1536 FILLER_41_81
*1537 FILLER_41_93
*1538 FILLER_42_109
*1539 FILLER_42_121
*1540 FILLER_42_133
*1541 FILLER_42_139
*1542 FILLER_42_141
*1543 FILLER_42_15
*1544 FILLER_42_153
*1545 FILLER_42_165
*1546 FILLER_42_177
*1547 FILLER_42_189
*1548 FILLER_42_195
*1549 FILLER_42_197
*1550 FILLER_42_209
*1551 FILLER_42_221
*1552 FILLER_42_233
*1553 FILLER_42_245
*1554 FILLER_42_251
*1555 FILLER_42_253
*1556 FILLER_42_265
*1557 FILLER_42_27
*1558 FILLER_42_277
*1559 FILLER_42_289
*1560 FILLER_42_29
*1561 FILLER_42_297
*1562 FILLER_42_3
*1563 FILLER_42_41
*1564 FILLER_42_53
*1565 FILLER_42_65
*1566 FILLER_42_77
*1567 FILLER_42_83
*1568 FILLER_42_85
*1569 FILLER_42_97
*1570 FILLER_43_105
*1571 FILLER_43_111
*1572 FILLER_43_113
*1573 FILLER_43_125
*1574 FILLER_43_137
*1575 FILLER_43_149
*1576 FILLER_43_15
*1577 FILLER_43_161
*1578 FILLER_43_167
*1579 FILLER_43_169
*1580 FILLER_43_181
*1581 FILLER_43_193
*1582 FILLER_43_205
*1583 FILLER_43_217
*1584 FILLER_43_223
*1585 FILLER_43_225
*1586 FILLER_43_237
*1587 FILLER_43_249
*1588 FILLER_43_261
*1589 FILLER_43_27
*1590 FILLER_43_273
*1591 FILLER_43_279
*1592 FILLER_43_281
*1593 FILLER_43_293
*1594 FILLER_43_3
*1595 FILLER_43_39
*1596 FILLER_43_47
*1597 FILLER_43_55
*1598 FILLER_43_57
*1599 FILLER_43_69
*1600 FILLER_43_81
*1601 FILLER_43_93
*1602 FILLER_44_109
*1603 FILLER_44_121
*1604 FILLER_44_133
*1605 FILLER_44_139
*1606 FILLER_44_141
*1607 FILLER_44_15
*1608 FILLER_44_153
*1609 FILLER_44_165
*1610 FILLER_44_177
*1611 FILLER_44_189
*1612 FILLER_44_195
*1613 FILLER_44_197
*1614 FILLER_44_209
*1615 FILLER_44_221
*1616 FILLER_44_233
*1617 FILLER_44_245
*1618 FILLER_44_251
*1619 FILLER_44_253
*1620 FILLER_44_265
*1621 FILLER_44_27
*1622 FILLER_44_277
*1623 FILLER_44_289
*1624 FILLER_44_29
*1625 FILLER_44_297
*1626 FILLER_44_3
*1627 FILLER_44_41
*1628 FILLER_44_53
*1629 FILLER_44_65
*1630 FILLER_44_77
*1631 FILLER_44_83
*1632 FILLER_44_85
*1633 FILLER_44_97
*1634 FILLER_45_108
*1635 FILLER_45_113
*1636 FILLER_45_125
*1637 FILLER_45_137
*1638 FILLER_45_149
*1639 FILLER_45_15
*1640 FILLER_45_161
*1641 FILLER_45_167
*1642 FILLER_45_169
*1643 FILLER_45_181
*1644 FILLER_45_193
*1645 FILLER_45_205
*1646 FILLER_45_217
*1647 FILLER_45_223
*1648 FILLER_45_225
*1649 FILLER_45_237
*1650 FILLER_45_249
*1651 FILLER_45_261
*1652 FILLER_45_27
*1653 FILLER_45_273
*1654 FILLER_45_279
*1655 FILLER_45_281
*1656 FILLER_45_293
*1657 FILLER_45_3
*1658 FILLER_45_39
*1659 FILLER_45_51
*1660 FILLER_45_55
*1661 FILLER_45_57
*1662 FILLER_45_69
*1663 FILLER_45_81
*1664 FILLER_45_9
*1665 FILLER_45_96
*1666 FILLER_46_109
*1667 FILLER_46_121
*1668 FILLER_46_133
*1669 FILLER_46_139
*1670 FILLER_46_141
*1671 FILLER_46_15
*1672 FILLER_46_153
*1673 FILLER_46_165
*1674 FILLER_46_177
*1675 FILLER_46_189
*1676 FILLER_46_195
*1677 FILLER_46_197
*1678 FILLER_46_209
*1679 FILLER_46_221
*1680 FILLER_46_233
*1681 FILLER_46_245
*1682 FILLER_46_251
*1683 FILLER_46_253
*1684 FILLER_46_265