*SPEF "ieee 1481-1999"
*DESIGN "user_module_349255310782759507"
*DATE "11:11:11 Fri 11 11, 1111"
*VENDOR "OpenRCX"
*PROGRAM "Parallel Extraction"
*VERSION "1.0"
*DESIGN_FLOW "NAME_SCOPE LOCAL" "PIN_CAP NONE"
*DIVIDER /
*DELIMITER :
*BUS_DELIMITER []
*T_UNIT 1 NS
*C_UNIT 1 PF
*R_UNIT 1 OHM
*L_UNIT 1 HENRY

*NAME_MAP
*1 io_in[0]
*2 io_in[1]
*3 io_in[2]
*4 io_in[3]
*5 io_in[4]
*6 io_in[5]
*7 io_in[6]
*8 io_in[7]
*9 io_out[0]
*10 net8
*11 net9
*12 io_out[3]
*13 net10
*14 net11
*15 net12
*16 net13
*19 _00_
*20 _01_
*21 _02_
*22 clknet_0__00_
*23 clknet_0_io_in[0]
*24 clknet_1_0__leaf__00_
*25 clknet_1_0__leaf_io_in[0]
*26 clknet_1_1__leaf__00_
*27 clknet_1_1__leaf_io_in[0]
*28 mux3\.out
*29 mux6\.out
*30 net1
*31 net2
*32 net3
*33 net4
*34 net5
*35 net6
*36 net7
*37 FILLER_0_109
*38 FILLER_0_113
*39 FILLER_0_125
*40 FILLER_0_137
*41 FILLER_0_141
*42 FILLER_0_15
*43 FILLER_0_153
*44 FILLER_0_165
*45 FILLER_0_169
*46 FILLER_0_181
*47 FILLER_0_193
*48 FILLER_0_197
*49 FILLER_0_209
*50 FILLER_0_221
*51 FILLER_0_225
*52 FILLER_0_237
*53 FILLER_0_249
*54 FILLER_0_253
*55 FILLER_0_265
*56 FILLER_0_27
*57 FILLER_0_277
*58 FILLER_0_281
*59 FILLER_0_29
*60 FILLER_0_293
*61 FILLER_0_3
*62 FILLER_0_41
*63 FILLER_0_53
*64 FILLER_0_57
*65 FILLER_0_69
*66 FILLER_0_81
*67 FILLER_0_85
*68 FILLER_0_97
*69 FILLER_10_109
*70 FILLER_10_121
*71 FILLER_10_133
*72 FILLER_10_139
*73 FILLER_10_141
*74 FILLER_10_15
*75 FILLER_10_153
*76 FILLER_10_165
*77 FILLER_10_177
*78 FILLER_10_189
*79 FILLER_10_195
*80 FILLER_10_197
*81 FILLER_10_209
*82 FILLER_10_221
*83 FILLER_10_233
*84 FILLER_10_245
*85 FILLER_10_251
*86 FILLER_10_253
*87 FILLER_10_265
*88 FILLER_10_27
*89 FILLER_10_277
*90 FILLER_10_289
*91 FILLER_10_29
*92 FILLER_10_297
*93 FILLER_10_3
*94 FILLER_10_41
*95 FILLER_10_53
*96 FILLER_10_65
*97 FILLER_10_77
*98 FILLER_10_83
*99 FILLER_10_85
*100 FILLER_10_97
*101 FILLER_11_105
*102 FILLER_11_111
*103 FILLER_11_113
*104 FILLER_11_125
*105 FILLER_11_137
*106 FILLER_11_149
*107 FILLER_11_161
*108 FILLER_11_167
*109 FILLER_11_169
*110 FILLER_11_18
*111 FILLER_11_181
*112 FILLER_11_193
*113 FILLER_11_205
*114 FILLER_11_217
*115 FILLER_11_223
*116 FILLER_11_225
*117 FILLER_11_237
*118 FILLER_11_249
*119 FILLER_11_261
*120 FILLER_11_273
*121 FILLER_11_279
*122 FILLER_11_281
*123 FILLER_11_293
*124 FILLER_11_30
*125 FILLER_11_42
*126 FILLER_11_54
*127 FILLER_11_57
*128 FILLER_11_6
*129 FILLER_11_69
*130 FILLER_11_81
*131 FILLER_11_93
*132 FILLER_12_109
*133 FILLER_12_121
*134 FILLER_12_133
*135 FILLER_12_139
*136 FILLER_12_141
*137 FILLER_12_153
*138 FILLER_12_165
*139 FILLER_12_177
*140 FILLER_12_189
*141 FILLER_12_195
*142 FILLER_12_197
*143 FILLER_12_209
*144 FILLER_12_221
*145 FILLER_12_233
*146 FILLER_12_24
*147 FILLER_12_245
*148 FILLER_12_251
*149 FILLER_12_253
*150 FILLER_12_265
*151 FILLER_12_277
*152 FILLER_12_289
*153 FILLER_12_29
*154 FILLER_12_297
*155 FILLER_12_3
*156 FILLER_12_41
*157 FILLER_12_53
*158 FILLER_12_65
*159 FILLER_12_77
*160 FILLER_12_83
*161 FILLER_12_85
*162 FILLER_12_97
*163 FILLER_13_105
*164 FILLER_13_111
*165 FILLER_13_113
*166 FILLER_13_125
*167 FILLER_13_137
*168 FILLER_13_149
*169 FILLER_13_15
*170 FILLER_13_161
*171 FILLER_13_167
*172 FILLER_13_169
*173 FILLER_13_181
*174 FILLER_13_193
*175 FILLER_13_205
*176 FILLER_13_217
*177 FILLER_13_223
*178 FILLER_13_225
*179 FILLER_13_237
*180 FILLER_13_249
*181 FILLER_13_261
*182 FILLER_13_27
*183 FILLER_13_273
*184 FILLER_13_279
*185 FILLER_13_281
*186 FILLER_13_293
*187 FILLER_13_3
*188 FILLER_13_39
*189 FILLER_13_51
*190 FILLER_13_55
*191 FILLER_13_57
*192 FILLER_13_69
*193 FILLER_13_81
*194 FILLER_13_93
*195 FILLER_14_109
*196 FILLER_14_121
*197 FILLER_14_133
*198 FILLER_14_139
*199 FILLER_14_141
*200 FILLER_14_15
*201 FILLER_14_153
*202 FILLER_14_165
*203 FILLER_14_177
*204 FILLER_14_189
*205 FILLER_14_195
*206 FILLER_14_197
*207 FILLER_14_209
*208 FILLER_14_221
*209 FILLER_14_233
*210 FILLER_14_245
*211 FILLER_14_251
*212 FILLER_14_253
*213 FILLER_14_265
*214 FILLER_14_27
*215 FILLER_14_277
*216 FILLER_14_289
*217 FILLER_14_29
*218 FILLER_14_297
*219 FILLER_14_3
*220 FILLER_14_41
*221 FILLER_14_53
*222 FILLER_14_65
*223 FILLER_14_77
*224 FILLER_14_83
*225 FILLER_14_85
*226 FILLER_14_97
*227 FILLER_15_105
*228 FILLER_15_111
*229 FILLER_15_113
*230 FILLER_15_125
*231 FILLER_15_137
*232 FILLER_15_149
*233 FILLER_15_15
*234 FILLER_15_161
*235 FILLER_15_167
*236 FILLER_15_169
*237 FILLER_15_181
*238 FILLER_15_193
*239 FILLER_15_205
*240 FILLER_15_217
*241 FILLER_15_223
*242 FILLER_15_225
*243 FILLER_15_237
*244 FILLER_15_249
*245 FILLER_15_261
*246 FILLER_15_27
*247 FILLER_15_273
*248 FILLER_15_279
*249 FILLER_15_281
*250 FILLER_15_293
*251 FILLER_15_3
*252 FILLER_15_39
*253 FILLER_15_51
*254 FILLER_15_55
*255 FILLER_15_57
*256 FILLER_15_69
*257 FILLER_15_81
*258 FILLER_15_93
*259 FILLER_16_109
*260 FILLER_16_12
*261 FILLER_16_121
*262 FILLER_16_133
*263 FILLER_16_139
*264 FILLER_16_141
*265 FILLER_16_153
*266 FILLER_16_165
*267 FILLER_16_177
*268 FILLER_16_189
*269 FILLER_16_19
*270 FILLER_16_195
*271 FILLER_16_197
*272 FILLER_16_209
*273 FILLER_16_221
*274 FILLER_16_233
*275 FILLER_16_245
*276 FILLER_16_251
*277 FILLER_16_253
*278 FILLER_16_265
*279 FILLER_16_27
*280 FILLER_16_277
*281 FILLER_16_289
*282 FILLER_16_29
*283 FILLER_16_297
*284 FILLER_16_41
*285 FILLER_16_53
*286 FILLER_16_65
*287 FILLER_16_77
*288 FILLER_16_83
*289 FILLER_16_85
*290 FILLER_16_97
*291 FILLER_17_105
*292 FILLER_17_111
*293 FILLER_17_113
*294 FILLER_17_125
*295 FILLER_17_137
*296 FILLER_17_149
*297 FILLER_17_161
*298 FILLER_17_167
*299 FILLER_17_169
*300 FILLER_17_181
*301 FILLER_17_193
*302 FILLER_17_205
*303 FILLER_17_217
*304 FILLER_17_223
*305 FILLER_17_225
*306 FILLER_17_237
*307 FILLER_17_249
*308 FILLER_17_261
*309 FILLER_17_27
*310 FILLER_17_273
*311 FILLER_17_279
*312 FILLER_17_281
*313 FILLER_17_293
*314 FILLER_17_3
*315 FILLER_17_39
*316 FILLER_17_51
*317 FILLER_17_55
*318 FILLER_17_57
*319 FILLER_17_69
*320 FILLER_17_81
*321 FILLER_17_93
*322 FILLER_18_109
*323 FILLER_18_12
*324 FILLER_18_121
*325 FILLER_18_133
*326 FILLER_18_139
*327 FILLER_18_141
*328 FILLER_18_153
*329 FILLER_18_165
*330 FILLER_18_177
*331 FILLER_18_189
*332 FILLER_18_195
*333 FILLER_18_197
*334 FILLER_18_209
*335 FILLER_18_221
*336 FILLER_18_233
*337 FILLER_18_24
*338 FILLER_18_245
*339 FILLER_18_251
*340 FILLER_18_253
*341 FILLER_18_265
*342 FILLER_18_277
*343 FILLER_18_289
*344 FILLER_18_29
*345 FILLER_18_297
*346 FILLER_18_41
*347 FILLER_18_53
*348 FILLER_18_65
*349 FILLER_18_77
*350 FILLER_18_83
*351 FILLER_18_85
*352 FILLER_18_97
*353 FILLER_19_10
*354 FILLER_19_105
*355 FILLER_19_111
*356 FILLER_19_113
*357 FILLER_19_125
*358 FILLER_19_137
*359 FILLER_19_149
*360 FILLER_19_161
*361 FILLER_19_167
*362 FILLER_19_169
*363 FILLER_19_181
*364 FILLER_19_193
*365 FILLER_19_205
*366 FILLER_19_217
*367 FILLER_19_223
*368 FILLER_19_225
*369 FILLER_19_237
*370 FILLER_19_249
*371 FILLER_19_261
*372 FILLER_19_273
*373 FILLER_19_279
*374 FILLER_19_281
*375 FILLER_19_293
*376 FILLER_19_31
*377 FILLER_19_43
*378 FILLER_19_55
*379 FILLER_19_57
*380 FILLER_19_6
*381 FILLER_19_69
*382 FILLER_19_81
*383 FILLER_19_93
*384 FILLER_1_105
*385 FILLER_1_111
*386 FILLER_1_113
*387 FILLER_1_125
*388 FILLER_1_137
*389 FILLER_1_149
*390 FILLER_1_15
*391 FILLER_1_161
*392 FILLER_1_167
*393 FILLER_1_169
*394 FILLER_1_181
*395 FILLER_1_193
*396 FILLER_1_205
*397 FILLER_1_217
*398 FILLER_1_223
*399 FILLER_1_225
*400 FILLER_1_237
*401 FILLER_1_249
*402 FILLER_1_261
*403 FILLER_1_27
*404 FILLER_1_273
*405 FILLER_1_279
*406 FILLER_1_281
*407 FILLER_1_293
*408 FILLER_1_3
*409 FILLER_1_39
*410 FILLER_1_51
*411 FILLER_1_55
*412 FILLER_1_57
*413 FILLER_1_69
*414 FILLER_1_81
*415 FILLER_1_93
*416 FILLER_20_109
*417 FILLER_20_121
*418 FILLER_20_133
*419 FILLER_20_139
*420 FILLER_20_141
*421 FILLER_20_153
*422 FILLER_20_165
*423 FILLER_20_177
*424 FILLER_20_189
*425 FILLER_20_195
*426 FILLER_20_197
*427 FILLER_20_209
*428 FILLER_20_221
*429 FILLER_20_233
*430 FILLER_20_24
*431 FILLER_20_245
*432 FILLER_20_251
*433 FILLER_20_253
*434 FILLER_20_265
*435 FILLER_20_277
*436 FILLER_20_289
*437 FILLER_20_297
*438 FILLER_20_3
*439 FILLER_20_36
*440 FILLER_20_48
*441 FILLER_20_60
*442 FILLER_20_72
*443 FILLER_20_85
*444 FILLER_20_97
*445 FILLER_21_105
*446 FILLER_21_11
*447 FILLER_21_111
*448 FILLER_21_113
*449 FILLER_21_125
*450 FILLER_21_137
*451 FILLER_21_149
*452 FILLER_21_15
*453 FILLER_21_161
*454 FILLER_21_167
*455 FILLER_21_169
*456 FILLER_21_181
*457 FILLER_21_193
*458 FILLER_21_205
*459 FILLER_21_217
*460 FILLER_21_223
*461 FILLER_21_225
*462 FILLER_21_237
*463 FILLER_21_249
*464 FILLER_21_261
*465 FILLER_21_273
*466 FILLER_21_279
*467 FILLER_21_281
*468 FILLER_21_293
*469 FILLER_21_36
*470 FILLER_21_48
*471 FILLER_21_57
*472 FILLER_21_69
*473 FILLER_21_81
*474 FILLER_21_93
*475 FILLER_22_109
*476 FILLER_22_121
*477 FILLER_22_133
*478 FILLER_22_139
*479 FILLER_22_141
*480 FILLER_22_153
*481 FILLER_22_165
*482 FILLER_22_177
*483 FILLER_22_189
*484 FILLER_22_195
*485 FILLER_22_197
*486 FILLER_22_209
*487 FILLER_22_221
*488 FILLER_22_233
*489 FILLER_22_24
*490 FILLER_22_245
*491 FILLER_22_251
*492 FILLER_22_253
*493 FILLER_22_265
*494 FILLER_22_277
*495 FILLER_22_289
*496 FILLER_22_29
*497 FILLER_22_297
*498 FILLER_22_3
*499 FILLER_22_41
*500 FILLER_22_53
*501 FILLER_22_65
*502 FILLER_22_77
*503 FILLER_22_83
*504 FILLER_22_85
*505 FILLER_22_97
*506 FILLER_23_105
*507 FILLER_23_111
*508 FILLER_23_113
*509 FILLER_23_125
*510 FILLER_23_137
*511 FILLER_23_149
*512 FILLER_23_161
*513 FILLER_23_167
*514 FILLER_23_169
*515 FILLER_23_181
*516 FILLER_23_19
*517 FILLER_23_193
*518 FILLER_23_205
*519 FILLER_23_217
*520 FILLER_23_223
*521 FILLER_23_225
*522 FILLER_23_237
*523 FILLER_23_249
*524 FILLER_23_261
*525 FILLER_23_273
*526 FILLER_23_279
*527 FILLER_23_281
*528 FILLER_23_293
*529 FILLER_23_31
*530 FILLER_23_43
*531 FILLER_23_55
*532 FILLER_23_57
*533 FILLER_23_69
*534 FILLER_23_7
*535 FILLER_23_81
*536 FILLER_23_93
*537 FILLER_24_109
*538 FILLER_24_121
*539 FILLER_24_133
*540 FILLER_24_139
*541 FILLER_24_141
*542 FILLER_24_153
*543 FILLER_24_165
*544 FILLER_24_177
*545 FILLER_24_189
*546 FILLER_24_19
*547 FILLER_24_195
*548 FILLER_24_197
*549 FILLER_24_209
*550 FILLER_24_221
*551 FILLER_24_233
*552 FILLER_24_245
*553 FILLER_24_251
*554 FILLER_24_253
*555 FILLER_24_265
*556 FILLER_24_27
*557 FILLER_24_277
*558 FILLER_24_289
*559 FILLER_24_29
*560 FILLER_24_297
*561 FILLER_24_41
*562 FILLER_24_53
*563 FILLER_24_65
*564 FILLER_24_7
*565 FILLER_24_77
*566 FILLER_24_83
*567 FILLER_24_85
*568 FILLER_24_97
*569 FILLER_25_105
*570 FILLER_25_111
*571 FILLER_25_113
*572 FILLER_25_125
*573 FILLER_25_137
*574 FILLER_25_149
*575 FILLER_25_161
*576 FILLER_25_167
*577 FILLER_25_169
*578 FILLER_25_18
*579 FILLER_25_181
*580 FILLER_25_193
*581 FILLER_25_205
*582 FILLER_25_217
*583 FILLER_25_223
*584 FILLER_25_225
*585 FILLER_25_237
*586 FILLER_25_249
*587 FILLER_25_261
*588 FILLER_25_273
*589 FILLER_25_279
*590 FILLER_25_281
*591 FILLER_25_293
*592 FILLER_25_30
*593 FILLER_25_42
*594 FILLER_25_54
*595 FILLER_25_57
*596 FILLER_25_6
*597 FILLER_25_69
*598 FILLER_25_81
*599 FILLER_25_93
*600 FILLER_26_109
*601 FILLER_26_121
*602 FILLER_26_133
*603 FILLER_26_139
*604 FILLER_26_141
*605 FILLER_26_15
*606 FILLER_26_153
*607 FILLER_26_165
*608 FILLER_26_177
*609 FILLER_26_189
*610 FILLER_26_195
*611 FILLER_26_197
*612 FILLER_26_209
*613 FILLER_26_221
*614 FILLER_26_233
*615 FILLER_26_245
*616 FILLER_26_251
*617 FILLER_26_253
*618 FILLER_26_265
*619 FILLER_26_27
*620 FILLER_26_277
*621 FILLER_26_289
*622 FILLER_26_29
*623 FILLER_26_297
*624 FILLER_26_3
*625 FILLER_26_41
*626 FILLER_26_53
*627 FILLER_26_65
*628 FILLER_26_77
*629 FILLER_26_83
*630 FILLER_26_85
*631 FILLER_26_97
*632 FILLER_27_105
*633 FILLER_27_111
*634 FILLER_27_113
*635 FILLER_27_125
*636 FILLER_27_137
*637 FILLER_27_149
*638 FILLER_27_161
*639 FILLER_27_167
*640 FILLER_27_169
*641 FILLER_27_18
*642 FILLER_27_181
*643 FILLER_27_193
*644 FILLER_27_205
*645 FILLER_27_217
*646 FILLER_27_223
*647 FILLER_27_225
*648 FILLER_27_237
*649 FILLER_27_249
*650 FILLER_27_261
*651 FILLER_27_273
*652 FILLER_27_279
*653 FILLER_27_281
*654 FILLER_27_293
*655 FILLER_27_30
*656 FILLER_27_42
*657 FILLER_27_54
*658 FILLER_27_57
*659 FILLER_27_6
*660 FILLER_27_69
*661 FILLER_27_81
*662 FILLER_27_93
*663 FILLER_28_109
*664 FILLER_28_121
*665 FILLER_28_133
*666 FILLER_28_139
*667 FILLER_28_141
*668 FILLER_28_15
*669 FILLER_28_153
*670 FILLER_28_165
*671 FILLER_28_177
*672 FILLER_28_189
*673 FILLER_28_195
*674 FILLER_28_197
*675 FILLER_28_209
*676 FILLER_28_221
*677 FILLER_28_233
*678 FILLER_28_245
*679 FILLER_28_251
*680 FILLER_28_253
*681 FILLER_28_265
*682 FILLER_28_27
*683 FILLER_28_277
*684 FILLER_28_289
*685 FILLER_28_29
*686 FILLER_28_297
*687 FILLER_28_3
*688 FILLER_28_41
*689 FILLER_28_53
*690 FILLER_28_65
*691 FILLER_28_77
*692 FILLER_28_83
*693 FILLER_28_85
*694 FILLER_28_97
*695 FILLER_29_105
*696 FILLER_29_111
*697 FILLER_29_113
*698 FILLER_29_125
*699 FILLER_29_137
*700 FILLER_29_149
*701 FILLER_29_15
*702 FILLER_29_161
*703 FILLER_29_167
*704 FILLER_29_169
*705 FILLER_29_181
*706 FILLER_29_193
*707 FILLER_29_205
*708 FILLER_29_217
*709 FILLER_29_223
*710 FILLER_29_225
*711 FILLER_29_237
*712 FILLER_29_249
*713 FILLER_29_261
*714 FILLER_29_27
*715 FILLER_29_273
*716 FILLER_29_279
*717 FILLER_29_281
*718 FILLER_29_293
*719 FILLER_29_3
*720 FILLER_29_39
*721 FILLER_29_51
*722 FILLER_29_55
*723 FILLER_29_57
*724 FILLER_29_69
*725 FILLER_29_81
*726 FILLER_29_93
*727 FILLER_2_109
*728 FILLER_2_121
*729 FILLER_2_133
*730 FILLER_2_139
*731 FILLER_2_141
*732 FILLER_2_15
*733 FILLER_2_153
*734 FILLER_2_165
*735 FILLER_2_177
*736 FILLER_2_189
*737 FILLER_2_195
*738 FILLER_2_197
*739 FILLER_2_209
*740 FILLER_2_221
*741 FILLER_2_233
*742 FILLER_2_245
*743 FILLER_2_251
*744 FILLER_2_253
*745 FILLER_2_265
*746 FILLER_2_27
*747 FILLER_2_277
*748 FILLER_2_289
*749 FILLER_2_29
*750 FILLER_2_297
*751 FILLER_2_3
*752 FILLER_2_41
*753 FILLER_2_53
*754 FILLER_2_65
*755 FILLER_2_77
*756 FILLER_2_83
*757 FILLER_2_85
*758 FILLER_2_97
*759 FILLER_30_109
*760 FILLER_30_121
*761 FILLER_30_133
*762 FILLER_30_139
*763 FILLER_30_141
*764 FILLER_30_15
*765 FILLER_30_153
*766 FILLER_30_165
*767 FILLER_30_177
*768 FILLER_30_189
*769 FILLER_30_195
*770 FILLER_30_197
*771 FILLER_30_209
*772 FILLER_30_221
*773 FILLER_30_233
*774 FILLER_30_245
*775 FILLER_30_251
*776 FILLER_30_253
*777 FILLER_30_265
*778 FILLER_30_27
*779 FILLER_30_277
*780 FILLER_30_289
*781 FILLER_30_29
*782 FILLER_30_297
*783 FILLER_30_3
*784 FILLER_30_41
*785 FILLER_30_53
*786 FILLER_30_65
*787 FILLER_30_77
*788 FILLER_30_83
*789 FILLER_30_85
*790 FILLER_30_97
*791 FILLER_31_105
*792 FILLER_31_111
*793 FILLER_31_113
*794 FILLER_31_125
*795 FILLER_31_137
*796 FILLER_31_149
*797 FILLER_31_15
*798 FILLER_31_161
*799 FILLER_31_167
*800 FILLER_31_169
*801 FILLER_31_181
*802 FILLER_31_193
*803 FILLER_31_205
*804 FILLER_31_217
*805 FILLER_31_223
*806 FILLER_31_225
*807 FILLER_31_237
*808 FILLER_31_249
*809 FILLER_31_261
*810 FILLER_31_27
*811 FILLER_31_273
*812 FILLER_31_279
*813 FILLER_31_281
*814 FILLER_31_293
*815 FILLER_31_3
*816 FILLER_31_39
*817 FILLER_31_51
*818 FILLER_31_55
*819 FILLER_31_57
*820 FILLER_31_69
*821 FILLER_31_81
*822 FILLER_31_93
*823 FILLER_32_109
*824 FILLER_32_121
*825 FILLER_32_133
*826 FILLER_32_139
*827 FILLER_32_141
*828 FILLER_32_15
*829 FILLER_32_153
*830 FILLER_32_165
*831 FILLER_32_177
*832 FILLER_32_189
*833 FILLER_32_195
*834 FILLER_32_197
*835 FILLER_32_209
*836 FILLER_32_221
*837 FILLER_32_233
*838 FILLER_32_245
*839 FILLER_32_251
*840 FILLER_32_253
*841 FILLER_32_265
*842 FILLER_32_27
*843 FILLER_32_277
*844 FILLER_32_289
*845 FILLER_32_29
*846 FILLER_32_297
*847 FILLER_32_3
*848 FILLER_32_41
*849 FILLER_32_53
*850 FILLER_32_65
*851 FILLER_32_77
*852 FILLER_32_83
*853 FILLER_32_85
*854 FILLER_32_97
*855 FILLER_33_105
*856 FILLER_33_111
*857 FILLER_33_113
*858 FILLER_33_125
*859 FILLER_33_137
*860 FILLER_33_149
*861 FILLER_33_15
*862 FILLER_33_161
*863 FILLER_33_167
*864 FILLER_33_169
*865 FILLER_33_181
*866 FILLER_33_193
*867 FILLER_33_205
*868 FILLER_33_217
*869 FILLER_33_223
*870 FILLER_33_225
*871 FILLER_33_237
*872 FILLER_33_249
*873 FILLER_33_261
*874 FILLER_33_27
*875 FILLER_33_273
*876 FILLER_33_279
*877 FILLER_33_281
*878 FILLER_33_293
*879 FILLER_33_3
*880 FILLER_33_39
*881 FILLER_33_51
*882 FILLER_33_55
*883 FILLER_33_57
*884 FILLER_33_69
*885 FILLER_33_81
*886 FILLER_33_93
*887 FILLER_34_109
*888 FILLER_34_121
*889 FILLER_34_133
*890 FILLER_34_139
*891 FILLER_34_141
*892 FILLER_34_15
*893 FILLER_34_153
*894 FILLER_34_165
*895 FILLER_34_177
*896 FILLER_34_189
*897 FILLER_34_195
*898 FILLER_34_197
*899 FILLER_34_209
*900 FILLER_34_221
*901 FILLER_34_233
*902 FILLER_34_245
*903 FILLER_34_251
*904 FILLER_34_253
*905 FILLER_34_265
*906 FILLER_34_27
*907 FILLER_34_277
*908 FILLER_34_289
*909 FILLER_34_29
*910 FILLER_34_297
*911 FILLER_34_3
*912 FILLER_34_41
*913 FILLER_34_53
*914 FILLER_34_65
*915 FILLER_34_77
*916 FILLER_34_83
*917 FILLER_34_85
*918 FILLER_34_97
*919 FILLER_35_105
*920 FILLER_35_111
*921 FILLER_35_113
*922 FILLER_35_125
*923 FILLER_35_137
*924 FILLER_35_149
*925 FILLER_35_161
*926 FILLER_35_167
*927 FILLER_35_169
*928 FILLER_35_18
*929 FILLER_35_181
*930 FILLER_35_193
*931 FILLER_35_205
*932 FILLER_35_217
*933 FILLER_35_223
*934 FILLER_35_225
*935 FILLER_35_237
*936 FILLER_35_249
*937 FILLER_35_261
*938 FILLER_35_273
*939 FILLER_35_279
*940 FILLER_35_281
*941 FILLER_35_293
*942 FILLER_35_30
*943 FILLER_35_42
*944 FILLER_35_54
*945 FILLER_35_57
*946 FILLER_35_6
*947 FILLER_35_69
*948 FILLER_35_81
*949 FILLER_35_93
*950 FILLER_36_109
*951 FILLER_36_121
*952 FILLER_36_133
*953 FILLER_36_139
*954 FILLER_36_141
*955 FILLER_36_15
*956 FILLER_36_153
*957 FILLER_36_165
*958 FILLER_36_177
*959 FILLER_36_189
*960 FILLER_36_195
*961 FILLER_36_197
*962 FILLER_36_209
*963 FILLER_36_221
*964 FILLER_36_233
*965 FILLER_36_245
*966 FILLER_36_251
*967 FILLER_36_253
*968 FILLER_36_265
*969 FILLER_36_27
*970 FILLER_36_277
*971 FILLER_36_289
*972 FILLER_36_29
*973 FILLER_36_297
*974 FILLER_36_3
*975 FILLER_36_41
*976 FILLER_36_53
*977 FILLER_36_65
*978 FILLER_36_77
*979 FILLER_36_83
*980 FILLER_36_85
*981 FILLER_36_97
*982 FILLER_37_105
*983 FILLER_37_111
*984 FILLER_37_113
*985 FILLER_37_125
*986 FILLER_37_137
*987 FILLER_37_149
*988 FILLER_37_15
*989 FILLER_37_161
*990 FILLER_37_167
*991 FILLER_37_169
*992 FILLER_37_181
*993 FILLER_37_193
*994 FILLER_37_205
*995 FILLER_37_217
*996 FILLER_37_223
*997 FILLER_37_225
*998 FILLER_37_237
*999 FILLER_37_249
*1000 FILLER_37_261
*1001 FILLER_37_27
*1002 FILLER_37_273
*1003 FILLER_37_279
*1004 FILLER_37_281
*1005 FILLER_37_293
*1006 FILLER_37_3
*1007 FILLER_37_39
*1008 FILLER_37_51
*1009 FILLER_37_55
*1010 FILLER_37_57
*1011 FILLER_37_69
*1012 FILLER_37_81
*1013 FILLER_37_93
*1014 FILLER_38_109
*1015 FILLER_38_121
*1016 FILLER_38_133
*1017 FILLER_38_139
*1018 FILLER_38_141
*1019 FILLER_38_15
*1020 FILLER_38_153
*1021 FILLER_38_165
*1022 FILLER_38_177
*1023 FILLER_38_189
*1024 FILLER_38_195
*1025 FILLER_38_197
*1026 FILLER_38_209
*1027 FILLER_38_221
*1028 FILLER_38_233
*1029 FILLER_38_245
*1030 FILLER_38_251
*1031 FILLER_38_253
*1032 FILLER_38_265
*1033 FILLER_38_27
*1034 FILLER_38_277
*1035 FILLER_38_289
*1036 FILLER_38_29
*1037 FILLER_38_297
*1038 FILLER_38_3
*1039 FILLER_38_41
*1040 FILLER_38_53
*1041 FILLER_38_65
*1042 FILLER_38_77
*1043 FILLER_38_83
*1044 FILLER_38_85
*1045 FILLER_38_97
*1046 FILLER_39_105
*1047 FILLER_39_111
*1048 FILLER_39_113
*1049 FILLER_39_125
*1050 FILLER_39_137
*1051 FILLER_39_149
*1052 FILLER_39_161
*1053 FILLER_39_167
*1054 FILLER_39_169
*1055 FILLER_39_18
*1056 FILLER_39_181
*1057 FILLER_39_193
*1058 FILLER_39_205
*1059 FILLER_39_217
*1060 FILLER_39_223
*1061 FILLER_39_225
*1062 FILLER_39_237
*1063 FILLER_39_249
*1064 FILLER_39_261
*1065 FILLER_39_273
*1066 FILLER_39_279
*1067 FILLER_39_281
*1068 FILLER_39_293
*1069 FILLER_39_30
*1070 FILLER_39_42
*1071 FILLER_39_54
*1072 FILLER_39_57
*1073 FILLER_39_6
*1074 FILLER_39_69
*1075 FILLER_39_81
*1076 FILLER_39_93
*1077 FILLER_3_105
*1078 FILLER_3_111
*1079 FILLER_3_113
*1080 FILLER_3_125
*1081 FILLER_3_137
*1082 FILLER_3_149
*1083 FILLER_3_15
*1084 FILLER_3_161
*1085 FILLER_3_167
*1086 FILLER_3_169
*1087 FILLER_3_181
*1088 FILLER_3_193
*1089 FILLER_3_205
*1090 FILLER_3_217
*1091 FILLER_3_223
*1092 FILLER_3_225
*1093 FILLER_3_237
*1094 FILLER_3_249
*1095 FILLER_3_261
*1096 FILLER_3_27
*1097 FILLER_3_273
*1098 FILLER_3_279
*1099 FILLER_3_281
*1100 FILLER_3_293
*1101 FILLER_3_3
*1102 FILLER_3_39
*1103 FILLER_3_51
*1104 FILLER_3_55
*1105 FILLER_3_57
*1106 FILLER_3_69
*1107 FILLER_3_81
*1108 FILLER_3_93
*1109 FILLER_40_109
*1110 FILLER_40_121
*1111 FILLER_40_133
*1112 FILLER_40_139
*1113 FILLER_40_141
*1114 FILLER_40_15
*1115 FILLER_40_153
*1116 FILLER_40_165
*1117 FILLER_40_177
*1118 FILLER_40_189
*1119 FILLER_40_195
*1120 FILLER_40_197
*1121 FILLER_40_209
*1122 FILLER_40_221
*1123 FILLER_40_233
*1124 FILLER_40_245
*1125 FILLER_40_251
*1126 FILLER_40_253
*1127 FILLER_40_265
*1128 FILLER_40_27
*1129 FILLER_40_277
*1130 FILLER_40_289
*1131 FILLER_40_29
*1132 FILLER_40_297
*1133 FILLER_40_3
*1134 FILLER_40_41
*1135 FILLER_40_53
*1136 FILLER_40_65
*1137 FILLER_40_77
*1138 FILLER_40_83
*1139 FILLER_40_85
*1140 FILLER_40_97
*1141 FILLER_41_105
*1142 FILLER_41_111
*1143 FILLER_41_113
*1144 FILLER_41_125
*1145 FILLER_41_137
*1146 FILLER_41_149
*1147 FILLER_41_15
*1148 FILLER_41_161
*1149 FILLER_41_167
*1150 FILLER_41_169
*1151 FILLER_41_181
*1152 FILLER_41_193
*1153 FILLER_41_205
*1154 FILLER_41_217
*1155 FILLER_41_223
*1156 FILLER_41_225
*1157 FILLER_41_237
*1158 FILLER_41_249
*1159 FILLER_41_261
*1160 FILLER_41_27
*1161 FILLER_41_273
*1162 FILLER_41_279
*1163 FILLER_41_281
*1164 FILLER_41_293
*1165 FILLER_41_3
*1166 FILLER_41_39
*1167 FILLER_41_51
*1168 FILLER_41_55
*1169 FILLER_41_57
*1170 FILLER_41_69
*1171 FILLER_41_81
*1172 FILLER_41_93
*1173 FILLER_42_109
*1174 FILLER_42_121
*1175 FILLER_42_133
*1176 FILLER_42_139
*1177 FILLER_42_141
*1178 FILLER_42_15
*1179 FILLER_42_153
*1180 FILLER_42_165
*1181 FILLER_42_177
*1182 FILLER_42_189
*1183 FILLER_42_195
*1184 FILLER_42_197
*1185 FILLER_42_209
*1186 FILLER_42_221
*1187 FILLER_42_233
*1188 FILLER_42_245
*1189 FILLER_42_251
*1190 FILLER_42_253
*1191 FILLER_42_265
*1192 FILLER_42_27
*1193 FILLER_42_277
*1194 FILLER_42_289
*1195 FILLER_42_29
*1196 FILLER_42_297
*1197 FILLER_42_3
*1198 FILLER_42_41
*1199 FILLER_42_53
*1200 FILLER_42_65
*1201 FILLER_42_77
*1202 FILLER_42_83
*1203 FILLER_42_85
*1204 FILLER_42_97
*1205 FILLER_43_105
*1206 FILLER_43_111
*1207 FILLER_43_113
*1208 FILLER_43_125
*1209 FILLER_43_137
*1210 FILLER_43_149
*1211 FILLER_43_15
*1212 FILLER_43_161
*1213 FILLER_43_167
*1214 FILLER_43_169
*1215 FILLER_43_181
*1216 FILLER_43_193
*1217 FILLER_43_205
*1218 FILLER_43_217
*1219 FILLER_43_223
*1220 FILLER_43_225
*1221 FILLER_43_237
*1222 FILLER_43_249
*1223 FILLER_43_261
*1224 FILLER_43_27
*1225 FILLER_43_273
*1226 FILLER_43_279
*1227 FILLER_43_281
*1228 FILLER_43_293
*1229 FILLER_43_3
*1230 FILLER_43_39
*1231 FILLER_43_51
*1232 FILLER_43_55
*1233 FILLER_43_57
*1234 FILLER_43_69
*1235 FILLER_43_81
*1236 FILLER_43_93
*1237 FILLER_44_109
*1238 FILLER_44_121
*1239 FILLER_44_133
*1240 FILLER_44_139
*1241 FILLER_44_141
*1242 FILLER_44_15
*1243 FILLER_44_153
*1244 FILLER_44_165
*1245 FILLER_44_177
*1246 FILLER_44_189
*1247 FILLER_44_195
*1248 FILLER_44_197
*1249 FILLER_44_209
*1250 FILLER_44_221
*1251 FILLER_44_233
*1252 FILLER_44_245
*1253 FILLER_44_251
*1254 FILLER_44_253
*1255 FILLER_44_265
*1256 FILLER_44_27
*1257 FILLER_44_277
*1258 FILLER_44_289
*1259 FILLER_44_29
*1260 FILLER_44_297
*1261 FILLER_44_3
*1262 FILLER_44_41
*1263 FILLER_44_53
*1264 FILLER_44_65
*1265 FILLER_44_77
*1266 FILLER_44_83
*1267 FILLER_44_85
*1268 FILLER_44_97
*1269 FILLER_45_105
*1270 FILLER_45_111
*1271 FILLER_45_113
*1272 FILLER_45_125
*1273 FILLER_45_137
*1274 FILLER_45_149
*1275 FILLER_45_15
*1276 FILLER_45_161
*1277 FILLER_45_167
*1278 FILLER_45_169
*1279 FILLER_45_181
*1280 FILLER_45_193
*1281 FILLER_45_205
*1282 FILLER_45_217
*1283 FILLER_45_223
*1284 FILLER_45_225
*1285 FILLER_45_237
*1286 FILLER_45_249
*1287 FILLER_45_261
*1288 FILLER_45_27
*1289 FILLER_45_273
*1290 FILLER_45_279
*1291 FILLER_45_281
*1292 FILLER_45_293
*1293 FILLER_45_3
*1294 FILLER_45_39
*1295 FILLER_45_51
*1296 FILLER_45_55
*1297 FILLER_45_57
*1298 FILLER_45_69
*1299 FILLER_45_81
*1300 FILLER_45_93
*1301 FILLER_46_109
*1302 FILLER_46_121
*1303 FILLER_46_133
*1304 FILLER_46_139
*1305 FILLER_46_141
*1306 FILLER_46_153
*1307 FILLER_46_165
*1308 FILLER_46_177
*1309 FILLER_46_18
*1310 FILLER_46_189
*1311 FILLER_46_195
*1312 FILLER_46_197
*1313 FILLER_46_209
*1314 FILLER_46_221
*1315 FILLER_46_233
*1316 FILLER_46_245
*1317 FILLER_46_251
*1318 FILLER_46_253
*1319 FILLER_46_26
*1320 FILLER_46_265
*1321 FILLER_46_277
*1322 FILLER_46_289
*1323 FILLER_46_29
*1324 FILLER_46_297
*1325 FILLER_46_41
*1326 FILLER_46_53
*1327 FILLER_46_6
*1328 FILLER_46_65
*1329 FILLER_46_77
*1330 FILLER_46_83
*1331 FILLER_46_85
*1332 FILLER_46_97
*1333 FILLER_47_105
*1334 FILLER_47_111
*1335 FILLER_47_113
*1336 FILLER_47_125
*1337 FILLER_47_137
*1338 FILLER_47_149
*1339 FILLER_47_15
*1340 FILLER_47_161
*1341 FILLER_47_167
*1342 FILLER_47_169
*1343 FILLER_47_181
*1344 FILLER_47_193
*1345 FILLER_47_205
*1346 FILLER_47_217
*1347 FILLER_47_223
*1348 FILLER_47_225
*1349 FILLER_47_237
*1350 FILLER_47_249
*1351 FILLER_47_261
*1352 FILLER_47_27
*1353 FILLER_47_273
*1354 FILLER_47_279
*1355 FILLER_47_281
*1356 FILLER_47_293
*1357 FILLER_47_3
*1358 FILLER_47_39
*1359 FILLER_47_51
*1360 FILLER_47_55
*1361 FILLER_47_57
*1362 FILLER_47_69
*1363 FILLER_47_81
*1364 FILLER_47_93
*1365 FILLER_48_109
*1366 FILLER_48_121
*1367 FILLER_48_133
*1368 FILLER_48_139
*1369 FILLER_48_141
*1370 FILLER_48_15
*1371 FILLER_48_153
*1372 FILLER_48_165
*1373 FILLER_48_177
*1374 FILLER_48_189
*1375 FILLER_48_195
*1376 FILLER_48_197
*1377 FILLER_48_209
*1378 FILLER_48_221
*1379 FILLER_48_233
*1380 FILLER_48_245
*1381 FILLER_48_251
*1382 FILLER_48_253
*1383 FILLER_48_265
*1384 FILLER_48_27
*1385 FILLER_48_277
*1386 FILLER_48_289
*1387 FILLER_48_29
*1388 FILLER_48_297
*1389 FILLER_48_3
*1390 FILLER_48_41
*1391 FILLER_48_53
*1392 FILLER_48_65
*1393 FILLER_48_77
*1394 FILLER_48_83
*1395 FILLER_48_85
*1396 FILLER_48_97
*1397 FILLER_49_105
*1398 FILLER_49_111
*1399 FILLER_49_113
*1400 FILLER_49_125
*1401 FILLER_49_137
*1402 FILLER_49_149
*1403 FILLER_49_15
*1404 FILLER_49_161
*1405 FILLER_49_167
*1406 FILLER_49_169
*1407 FILLER_49_181
*1408 FILLER_49_193
*1409 FILLER_49_205
*1410 FILLER_49_217
*1411 FILLER_49_223
*1412 FILLER_49_225
*1413 FILLER_49_237
*1414 FILLER_49_249
*1415 FILLER_49_261
*1416 FILLER_49_27
*1417 FILLER_49_273
*1418 FILLER_49_279
*1419 FILLER_49_281
*1420 FILLER_49_293
*1421 FILLER_49_3
*1422 FILLER_49_39
*1423 FILLER_49_51
*1424 FILLER_49_55
*1425 FILLER_49_57
*1426 FILLER_49_69
*1427 FILLER_49_81
*1428 FILLER_49_93
*1429 FILLER_4_109
*1430 FILLER_4_121
*1431 FILLER_4_133
*1432 FILLER_4_139
*1433 FILLER_4_141
*1434 FILLER_4_15
*1435 FILLER_4_153
*1436 FILLER_4_165
*1437 FILLER_4_177
*1438 FILLER_4_189
*1439 FILLER_4_195
*1440 FILLER_4_197
*1441 FILLER_4_209
*1442 FILLER_4_221
*1443 FILLER_4_233
*1444 FILLER_4_245
*1445 FILLER_4_251
*1446 FILLER_4_253
*1447 FILLER_4_265
*1448 FILLER_4_27
*1449 FILLER_4_277
*1450 FILLER_4_289
*1451 FILLER_4_29
*1452 FILLER_4_297
*1453 FILLER_4_3
*1454 FILLER_4_41
*1455 FILLER_4_53
*1456 FILLER_4_65
*1457 FILLER_4_77
*1458 FILLER_4_83
*1459 FILLER_4_85
*1460 FILLER_4_97
*1461 FILLER_50_109
*1462 FILLER_50_121
*1463 FILLER_50_133
*1464 FILLER_50_139
*1465 FILLER_50_141
*1466 FILLER_50_153
*1467 FILLER_50_165
*1468 FILLER_50_177
*1469 FILLER_50_18
*1470 FILLER_50_189
*1471 FILLER_50_195
*1472 FILLER_50_197
*1473 FILLER_50_209
*1474 FILLER_50_221
*1475 FILLER_50_233
*1476 FILLER_50_245
*1477 FILLER_50_251
*1478 FILLER_50_253
*1479 FILLER_50_26
*1480 FILLER_50_265
*1481 FILLER_50_277
*1482 FILLER_50_289
*1483 FILLER_50_29
*1484 FILLER_50_297
*1485 FILLER_50_41
*1486 FILLER_50_53
*1487 FILLER_50_6
*1488 FILLER_50_65
*1489 FILLER_50_77
*1490 FILLER_50_83
*1491 FILLER_50_85
*1492 FILLER_50_97
*1493 FILLER_51_105
*1494 FILLER_51_111
*1495 FILLER_51_113
*1496 FILLER_51_125
*1497 FILLER_51_137
*1498 FILLER_51_149
*1499 FILLER_51_15
*1500 FILLER_51_161
*1501 FILLER_51_167
*1502 FILLER_51_169
*1503 FILLER_51_181
*1504 FILLER_51_193
*1505 FILLER_51_205
*1506 FILLER_51_217
*1507 FILLER_51_223
*1508 FILLER_51_225
*1509 FILLER_51_237
*1510 FILLER_51_249
*1511 FILLER_51_261
*1512 FILLER_51_27
*1513 FILLER_51_273
*1514 FILLER_51_279
*1515 FILLER_51_281
*1516 FILLER_51_293
*1517 FILLER_51_3
*1518 FILLER_51_39
*1519 FILLER_51_51
*1520 FILLER_51_55
*1521 FILLER_51_57
*1522 FILLER_51_69
*1523 FILLER_51_81
*1524 FILLER_51_93
*1525 FILLER_52_109
*1526 FILLER_52_121
*1527 FILLER_52_133
*1528 FILLER_52_139
*1529 FILLER_52_141
*1530 FILLER_52_15
*1531 FILLER_52_153
*1532 FILLER_52_165
*1533 FILLER_52_177
*1534 FILLER_52_189
*1535 FILLER_52_195
*1536 FILLER_52_197
*1537 FILLER_52_209
*1538 FILLER_52_221
*1539 FILLER_52_233
*1540 FILLER_52_245
*1541 FILLER_52_251
*1542 FILLER_52_253
*1543 FILLER_52_265
*1544 FILLER_52_27
*1545 FILLER_52_277
*1546 FILLER_52_289
*1547 FILLER_52_29
*1548 FILLER_52_297
*1549 FILLER_52_3
*1550 FILLER_52_41
*1551 FILLER_52_53
*1552 FILLER_52_65
*1553 FILLER_52_77
*1554 FILLER_52_83
*1555 FILLER_52_85
*1556 FILLER_52_97
*1557 FILLER_53_105
*1558 FILLER_53_111
*1559 FILLER_53_113
*1560 FILLER_53_125
*1561 FILLER_53_137
*1562 FILLER_53_149
*1563 FILLER_53_15
*1564 FILLER_53_161
*1565 FILLER_53_167
*1566 FILLER_53_169
*1567 FILLER_53_181
*1568 FILLER_53_193
*1569 FILLER_53_205
*1570 FILLER_53_217
*1571 FILLER_53_223
*1572 FILLER_53_225
*1573 FILLER_53_237
*1574 FILLER_53_249
*1575 FILLER_53_261
*1576 FILLER_53_27
*1577 FILLER_53_273
*1578 FILLER_53_279
*1579 FILLER_53_281
*1580 FILLER_53_293
*1581 FILLER_53_3
*1582 FILLER_53_39
*1583 FILLER_53_51