*SPEF "ieee 1481-1999"
*DESIGN "user_module_348787952842703444"
*DATE "11:11:11 Fri 11 11, 1111"
*VENDOR "OpenRCX"
*PROGRAM "Parallel Extraction"
*VERSION "1.0"
*DESIGN_FLOW "NAME_SCOPE LOCAL" "PIN_CAP NONE"
*DIVIDER /
*DELIMITER :
*BUS_DELIMITER []
*T_UNIT 1 NS
*C_UNIT 1 PF
*R_UNIT 1 OHM
*L_UNIT 1 HENRY

*NAME_MAP
*1 io_in[0]
*2 io_in[1]
*3 io_in[2]
*4 io_in[3]
*5 io_in[4]
*6 io_in[5]
*7 io_in[6]
*8 io_in[7]
*9 io_out[0]
*10 io_out[1]
*11 io_out[2]
*12 io_out[3]
*13 io_out[4]
*14 net8
*15 net9
*16 net10
*19 _00_
*20 _01_
*21 _02_
*22 _03_
*23 _04_
*24 _05_
*25 _06_
*26 _07_
*27 _08_
*28 _09_
*29 _10_
*30 _11_
*31 _12_
*32 _13_
*33 clknet_0__00_
*34 clknet_0__01_
*35 clknet_0_io_in[0]
*36 clknet_1_0__leaf__00_
*37 clknet_1_0__leaf__01_
*38 clknet_1_0__leaf_io_in[0]
*39 clknet_1_1__leaf__00_
*40 clknet_1_1__leaf__01_
*41 clknet_1_1__leaf_io_in[0]
*42 gate17\.b
*43 gate19\.out
*44 net1
*45 net11
*46 net2
*47 net3
*48 net4
*49 net5
*50 net6
*51 net7
*52 xor6\.out
*53 xor8\.out
*54 FILLER_0_109
*55 FILLER_0_113
*56 FILLER_0_125
*57 FILLER_0_137
*58 FILLER_0_141
*59 FILLER_0_15
*60 FILLER_0_153
*61 FILLER_0_165
*62 FILLER_0_169
*63 FILLER_0_181
*64 FILLER_0_193
*65 FILLER_0_197
*66 FILLER_0_209
*67 FILLER_0_221
*68 FILLER_0_225
*69 FILLER_0_237
*70 FILLER_0_249
*71 FILLER_0_253
*72 FILLER_0_265
*73 FILLER_0_27
*74 FILLER_0_277
*75 FILLER_0_281
*76 FILLER_0_29
*77 FILLER_0_293
*78 FILLER_0_3
*79 FILLER_0_41
*80 FILLER_0_53
*81 FILLER_0_57
*82 FILLER_0_69
*83 FILLER_0_81
*84 FILLER_0_85
*85 FILLER_0_97
*86 FILLER_10_109
*87 FILLER_10_121
*88 FILLER_10_133
*89 FILLER_10_139
*90 FILLER_10_141
*91 FILLER_10_15
*92 FILLER_10_153
*93 FILLER_10_165
*94 FILLER_10_177
*95 FILLER_10_189
*96 FILLER_10_195
*97 FILLER_10_197
*98 FILLER_10_209
*99 FILLER_10_221
*100 FILLER_10_233
*101 FILLER_10_245
*102 FILLER_10_251
*103 FILLER_10_253
*104 FILLER_10_265
*105 FILLER_10_27
*106 FILLER_10_277
*107 FILLER_10_289
*108 FILLER_10_29
*109 FILLER_10_297
*110 FILLER_10_3
*111 FILLER_10_41
*112 FILLER_10_53
*113 FILLER_10_65
*114 FILLER_10_77
*115 FILLER_10_83
*116 FILLER_10_85
*117 FILLER_10_97
*118 FILLER_11_105
*119 FILLER_11_111
*120 FILLER_11_113
*121 FILLER_11_125
*122 FILLER_11_137
*123 FILLER_11_149
*124 FILLER_11_15
*125 FILLER_11_161
*126 FILLER_11_167
*127 FILLER_11_169
*128 FILLER_11_181
*129 FILLER_11_193
*130 FILLER_11_205
*131 FILLER_11_217
*132 FILLER_11_223
*133 FILLER_11_225
*134 FILLER_11_237
*135 FILLER_11_249
*136 FILLER_11_261
*137 FILLER_11_27
*138 FILLER_11_273
*139 FILLER_11_279
*140 FILLER_11_281
*141 FILLER_11_293
*142 FILLER_11_3
*143 FILLER_11_39
*144 FILLER_11_51
*145 FILLER_11_55
*146 FILLER_11_57
*147 FILLER_11_69
*148 FILLER_11_81
*149 FILLER_11_93
*150 FILLER_12_109
*151 FILLER_12_121
*152 FILLER_12_13
*153 FILLER_12_133
*154 FILLER_12_139
*155 FILLER_12_141
*156 FILLER_12_153
*157 FILLER_12_165
*158 FILLER_12_177
*159 FILLER_12_189
*160 FILLER_12_195
*161 FILLER_12_197
*162 FILLER_12_209
*163 FILLER_12_221
*164 FILLER_12_233
*165 FILLER_12_245
*166 FILLER_12_25
*167 FILLER_12_251
*168 FILLER_12_253
*169 FILLER_12_265
*170 FILLER_12_277
*171 FILLER_12_289
*172 FILLER_12_29
*173 FILLER_12_297
*174 FILLER_12_41
*175 FILLER_12_53
*176 FILLER_12_65
*177 FILLER_12_77
*178 FILLER_12_83
*179 FILLER_12_85
*180 FILLER_12_97
*181 FILLER_13_105
*182 FILLER_13_111
*183 FILLER_13_113
*184 FILLER_13_125
*185 FILLER_13_137
*186 FILLER_13_149
*187 FILLER_13_15
*188 FILLER_13_161
*189 FILLER_13_167
*190 FILLER_13_169
*191 FILLER_13_181
*192 FILLER_13_193
*193 FILLER_13_205
*194 FILLER_13_217
*195 FILLER_13_223
*196 FILLER_13_225
*197 FILLER_13_237
*198 FILLER_13_249
*199 FILLER_13_261
*200 FILLER_13_27
*201 FILLER_13_273
*202 FILLER_13_279
*203 FILLER_13_281
*204 FILLER_13_293
*205 FILLER_13_3
*206 FILLER_13_39
*207 FILLER_13_51
*208 FILLER_13_55
*209 FILLER_13_57
*210 FILLER_13_69
*211 FILLER_13_81
*212 FILLER_13_93
*213 FILLER_14_109
*214 FILLER_14_121
*215 FILLER_14_133
*216 FILLER_14_139
*217 FILLER_14_141
*218 FILLER_14_15
*219 FILLER_14_153
*220 FILLER_14_165
*221 FILLER_14_177
*222 FILLER_14_189
*223 FILLER_14_195
*224 FILLER_14_197
*225 FILLER_14_209
*226 FILLER_14_221
*227 FILLER_14_233
*228 FILLER_14_245
*229 FILLER_14_251
*230 FILLER_14_253
*231 FILLER_14_265
*232 FILLER_14_27
*233 FILLER_14_277
*234 FILLER_14_289
*235 FILLER_14_29
*236 FILLER_14_297
*237 FILLER_14_3
*238 FILLER_14_41
*239 FILLER_14_53
*240 FILLER_14_65
*241 FILLER_14_77
*242 FILLER_14_83
*243 FILLER_14_85
*244 FILLER_14_97
*245 FILLER_15_105
*246 FILLER_15_111
*247 FILLER_15_113
*248 FILLER_15_125
*249 FILLER_15_137
*250 FILLER_15_149
*251 FILLER_15_15
*252 FILLER_15_161
*253 FILLER_15_167
*254 FILLER_15_169
*255 FILLER_15_181
*256 FILLER_15_193
*257 FILLER_15_205
*258 FILLER_15_217
*259 FILLER_15_223
*260 FILLER_15_225
*261 FILLER_15_237
*262 FILLER_15_249
*263 FILLER_15_261
*264 FILLER_15_27
*265 FILLER_15_273
*266 FILLER_15_279
*267 FILLER_15_281
*268 FILLER_15_293
*269 FILLER_15_3
*270 FILLER_15_39
*271 FILLER_15_51
*272 FILLER_15_55
*273 FILLER_15_57
*274 FILLER_15_69
*275 FILLER_15_81
*276 FILLER_15_93
*277 FILLER_16_109
*278 FILLER_16_121
*279 FILLER_16_13
*280 FILLER_16_133
*281 FILLER_16_139
*282 FILLER_16_141
*283 FILLER_16_153
*284 FILLER_16_165
*285 FILLER_16_177
*286 FILLER_16_189
*287 FILLER_16_195
*288 FILLER_16_197
*289 FILLER_16_209
*290 FILLER_16_221
*291 FILLER_16_233
*292 FILLER_16_245
*293 FILLER_16_25
*294 FILLER_16_251
*295 FILLER_16_253
*296 FILLER_16_265
*297 FILLER_16_277
*298 FILLER_16_289
*299 FILLER_16_29
*300 FILLER_16_297
*301 FILLER_16_41
*302 FILLER_16_53
*303 FILLER_16_65
*304 FILLER_16_77
*305 FILLER_16_83
*306 FILLER_16_85
*307 FILLER_16_97
*308 FILLER_17_105
*309 FILLER_17_111
*310 FILLER_17_113
*311 FILLER_17_125
*312 FILLER_17_137
*313 FILLER_17_149
*314 FILLER_17_161
*315 FILLER_17_167
*316 FILLER_17_169
*317 FILLER_17_181
*318 FILLER_17_193
*319 FILLER_17_205
*320 FILLER_17_217
*321 FILLER_17_223
*322 FILLER_17_225
*323 FILLER_17_237
*324 FILLER_17_249
*325 FILLER_17_25
*326 FILLER_17_261
*327 FILLER_17_273
*328 FILLER_17_279
*329 FILLER_17_281
*330 FILLER_17_293
*331 FILLER_17_3
*332 FILLER_17_37
*333 FILLER_17_49
*334 FILLER_17_55
*335 FILLER_17_57
*336 FILLER_17_69
*337 FILLER_17_7
*338 FILLER_17_81
*339 FILLER_17_93
*340 FILLER_18_109
*341 FILLER_18_11
*342 FILLER_18_121
*343 FILLER_18_133
*344 FILLER_18_139
*345 FILLER_18_141
*346 FILLER_18_153
*347 FILLER_18_165
*348 FILLER_18_177
*349 FILLER_18_189
*350 FILLER_18_195
*351 FILLER_18_197
*352 FILLER_18_209
*353 FILLER_18_221
*354 FILLER_18_23
*355 FILLER_18_233
*356 FILLER_18_245
*357 FILLER_18_251
*358 FILLER_18_253
*359 FILLER_18_265
*360 FILLER_18_27
*361 FILLER_18_277
*362 FILLER_18_289
*363 FILLER_18_297
*364 FILLER_18_3
*365 FILLER_18_32
*366 FILLER_18_44
*367 FILLER_18_56
*368 FILLER_18_68
*369 FILLER_18_80
*370 FILLER_18_85
*371 FILLER_18_97
*372 FILLER_19_105
*373 FILLER_19_111
*374 FILLER_19_113
*375 FILLER_19_125
*376 FILLER_19_137
*377 FILLER_19_149
*378 FILLER_19_16
*379 FILLER_19_161
*380 FILLER_19_167
*381 FILLER_19_169
*382 FILLER_19_181
*383 FILLER_19_193
*384 FILLER_19_205
*385 FILLER_19_217
*386 FILLER_19_223
*387 FILLER_19_225
*388 FILLER_19_237
*389 FILLER_19_249
*390 FILLER_19_26
*391 FILLER_19_261
*392 FILLER_19_273
*393 FILLER_19_279
*394 FILLER_19_281
*395 FILLER_19_293
*396 FILLER_19_38
*397 FILLER_19_50
*398 FILLER_19_57
*399 FILLER_19_69
*400 FILLER_19_81
*401 FILLER_19_93
*402 FILLER_1_105
*403 FILLER_1_111
*404 FILLER_1_113
*405 FILLER_1_125
*406 FILLER_1_137
*407 FILLER_1_149
*408 FILLER_1_15
*409 FILLER_1_161
*410 FILLER_1_167
*411 FILLER_1_169
*412 FILLER_1_181
*413 FILLER_1_193
*414 FILLER_1_205
*415 FILLER_1_217
*416 FILLER_1_223
*417 FILLER_1_225
*418 FILLER_1_237
*419 FILLER_1_249
*420 FILLER_1_261
*421 FILLER_1_27
*422 FILLER_1_273
*423 FILLER_1_279
*424 FILLER_1_281
*425 FILLER_1_293
*426 FILLER_1_3
*427 FILLER_1_39
*428 FILLER_1_51
*429 FILLER_1_55
*430 FILLER_1_57
*431 FILLER_1_69
*432 FILLER_1_81
*433 FILLER_1_93
*434 FILLER_20_109
*435 FILLER_20_121
*436 FILLER_20_133
*437 FILLER_20_139
*438 FILLER_20_141
*439 FILLER_20_153
*440 FILLER_20_165
*441 FILLER_20_177
*442 FILLER_20_189
*443 FILLER_20_19
*444 FILLER_20_195
*445 FILLER_20_197
*446 FILLER_20_209
*447 FILLER_20_221
*448 FILLER_20_233
*449 FILLER_20_245
*450 FILLER_20_251
*451 FILLER_20_253
*452 FILLER_20_265
*453 FILLER_20_27
*454 FILLER_20_277
*455 FILLER_20_289
*456 FILLER_20_29
*457 FILLER_20_297
*458 FILLER_20_3
*459 FILLER_20_41
*460 FILLER_20_53
*461 FILLER_20_65
*462 FILLER_20_7
*463 FILLER_20_77
*464 FILLER_20_83
*465 FILLER_20_85
*466 FILLER_20_97
*467 FILLER_21_105
*468 FILLER_21_111
*469 FILLER_21_113
*470 FILLER_21_125
*471 FILLER_21_137
*472 FILLER_21_149
*473 FILLER_21_161
*474 FILLER_21_167
*475 FILLER_21_169
*476 FILLER_21_18
*477 FILLER_21_181
*478 FILLER_21_193
*479 FILLER_21_205
*480 FILLER_21_217
*481 FILLER_21_223
*482 FILLER_21_225
*483 FILLER_21_237
*484 FILLER_21_249
*485 FILLER_21_261
*486 FILLER_21_273
*487 FILLER_21_279
*488 FILLER_21_281
*489 FILLER_21_293
*490 FILLER_21_30
*491 FILLER_21_42
*492 FILLER_21_54
*493 FILLER_21_57
*494 FILLER_21_6
*495 FILLER_21_69
*496 FILLER_21_81
*497 FILLER_21_93
*498 FILLER_22_109
*499 FILLER_22_121
*500 FILLER_22_133
*501 FILLER_22_139
*502 FILLER_22_141
*503 FILLER_22_15
*504 FILLER_22_153
*505 FILLER_22_165
*506 FILLER_22_177
*507 FILLER_22_189
*508 FILLER_22_195
*509 FILLER_22_197
*510 FILLER_22_209
*511 FILLER_22_221
*512 FILLER_22_233
*513 FILLER_22_245
*514 FILLER_22_251
*515 FILLER_22_253
*516 FILLER_22_265
*517 FILLER_22_27
*518 FILLER_22_277
*519 FILLER_22_289
*520 FILLER_22_29
*521 FILLER_22_297
*522 FILLER_22_3
*523 FILLER_22_41
*524 FILLER_22_53
*525 FILLER_22_65
*526 FILLER_22_77
*527 FILLER_22_83
*528 FILLER_22_85
*529 FILLER_22_97
*530 FILLER_23_105
*531 FILLER_23_111
*532 FILLER_23_113
*533 FILLER_23_125
*534 FILLER_23_137
*535 FILLER_23_149
*536 FILLER_23_15
*537 FILLER_23_161
*538 FILLER_23_167
*539 FILLER_23_169
*540 FILLER_23_181
*541 FILLER_23_193
*542 FILLER_23_205
*543 FILLER_23_217
*544 FILLER_23_223
*545 FILLER_23_225
*546 FILLER_23_237
*547 FILLER_23_249
*548 FILLER_23_261
*549 FILLER_23_27
*550 FILLER_23_273
*551 FILLER_23_279
*552 FILLER_23_281
*553 FILLER_23_293
*554 FILLER_23_3
*555 FILLER_23_39
*556 FILLER_23_51
*557 FILLER_23_55
*558 FILLER_23_57
*559 FILLER_23_69
*560 FILLER_23_81
*561 FILLER_23_93
*562 FILLER_24_109
*563 FILLER_24_11
*564 FILLER_24_121
*565 FILLER_24_133
*566 FILLER_24_139
*567 FILLER_24_141
*568 FILLER_24_153
*569 FILLER_24_165
*570 FILLER_24_177
*571 FILLER_24_189
*572 FILLER_24_195
*573 FILLER_24_197
*574 FILLER_24_209
*575 FILLER_24_221
*576 FILLER_24_23
*577 FILLER_24_233
*578 FILLER_24_245
*579 FILLER_24_251
*580 FILLER_24_253
*581 FILLER_24_265
*582 FILLER_24_27
*583 FILLER_24_277
*584 FILLER_24_289
*585 FILLER_24_29
*586 FILLER_24_297
*587 FILLER_24_3
*588 FILLER_24_41
*589 FILLER_24_53
*590 FILLER_24_65
*591 FILLER_24_77
*592 FILLER_24_83
*593 FILLER_24_85
*594 FILLER_24_97
*595 FILLER_25_105
*596 FILLER_25_111
*597 FILLER_25_113
*598 FILLER_25_125
*599 FILLER_25_137
*600 FILLER_25_149
*601 FILLER_25_15
*602 FILLER_25_161
*603 FILLER_25_167
*604 FILLER_25_169
*605 FILLER_25_181
*606 FILLER_25_193
*607 FILLER_25_205
*608 FILLER_25_217
*609 FILLER_25_223
*610 FILLER_25_225
*611 FILLER_25_237
*612 FILLER_25_249
*613 FILLER_25_261
*614 FILLER_25_27
*615 FILLER_25_273
*616 FILLER_25_279
*617 FILLER_25_281
*618 FILLER_25_293
*619 FILLER_25_3
*620 FILLER_25_39
*621 FILLER_25_51
*622 FILLER_25_55
*623 FILLER_25_57
*624 FILLER_25_69
*625 FILLER_25_81
*626 FILLER_25_93
*627 FILLER_26_109
*628 FILLER_26_121
*629 FILLER_26_13
*630 FILLER_26_133
*631 FILLER_26_139
*632 FILLER_26_141
*633 FILLER_26_153
*634 FILLER_26_165
*635 FILLER_26_177
*636 FILLER_26_189
*637 FILLER_26_195
*638 FILLER_26_197
*639 FILLER_26_209
*640 FILLER_26_221
*641 FILLER_26_233
*642 FILLER_26_245
*643 FILLER_26_25
*644 FILLER_26_251
*645 FILLER_26_253
*646 FILLER_26_265
*647 FILLER_26_277
*648 FILLER_26_289
*649 FILLER_26_29
*650 FILLER_26_297
*651 FILLER_26_41
*652 FILLER_26_53
*653 FILLER_26_65
*654 FILLER_26_77
*655 FILLER_26_83
*656 FILLER_26_85
*657 FILLER_26_97
*658 FILLER_27_105
*659 FILLER_27_111
*660 FILLER_27_113
*661 FILLER_27_125
*662 FILLER_27_137
*663 FILLER_27_149
*664 FILLER_27_161
*665 FILLER_27_167
*666 FILLER_27_169
*667 FILLER_27_181
*668 FILLER_27_193
*669 FILLER_27_205
*670 FILLER_27_217
*671 FILLER_27_223
*672 FILLER_27_225
*673 FILLER_27_237
*674 FILLER_27_249
*675 FILLER_27_261
*676 FILLER_27_27
*677 FILLER_27_273
*678 FILLER_27_279
*679 FILLER_27_281
*680 FILLER_27_293
*681 FILLER_27_3
*682 FILLER_27_39
*683 FILLER_27_51
*684 FILLER_27_55
*685 FILLER_27_57
*686 FILLER_27_69
*687 FILLER_27_81
*688 FILLER_27_93
*689 FILLER_28_109
*690 FILLER_28_12
*691 FILLER_28_121
*692 FILLER_28_133
*693 FILLER_28_139
*694 FILLER_28_141
*695 FILLER_28_153
*696 FILLER_28_165
*697 FILLER_28_177
*698 FILLER_28_189
*699 FILLER_28_195
*700 FILLER_28_197
*701 FILLER_28_209
*702 FILLER_28_21
*703 FILLER_28_221
*704 FILLER_28_233
*705 FILLER_28_245
*706 FILLER_28_251
*707 FILLER_28_253
*708 FILLER_28_265
*709 FILLER_28_27
*710 FILLER_28_277
*711 FILLER_28_289
*712 FILLER_28_29
*713 FILLER_28_297
*714 FILLER_28_3
*715 FILLER_28_41
*716 FILLER_28_53
*717 FILLER_28_65
*718 FILLER_28_77
*719 FILLER_28_83
*720 FILLER_28_85
*721 FILLER_28_97
*722 FILLER_29_105
*723 FILLER_29_111
*724 FILLER_29_113
*725 FILLER_29_125
*726 FILLER_29_137
*727 FILLER_29_149
*728 FILLER_29_15
*729 FILLER_29_161
*730 FILLER_29_167
*731 FILLER_29_169
*732 FILLER_29_181
*733 FILLER_29_193
*734 FILLER_29_205
*735 FILLER_29_217
*736 FILLER_29_223
*737 FILLER_29_225
*738 FILLER_29_237
*739 FILLER_29_249
*740 FILLER_29_261
*741 FILLER_29_27
*742 FILLER_29_273
*743 FILLER_29_279
*744 FILLER_29_281
*745 FILLER_29_293
*746 FILLER_29_3
*747 FILLER_29_39
*748 FILLER_29_51
*749 FILLER_29_55
*750 FILLER_29_57
*751 FILLER_29_69
*752 FILLER_29_81
*753 FILLER_29_93
*754 FILLER_2_109
*755 FILLER_2_121
*756 FILLER_2_133
*757 FILLER_2_139
*758 FILLER_2_141
*759 FILLER_2_15
*760 FILLER_2_153
*761 FILLER_2_165
*762 FILLER_2_177
*763 FILLER_2_189
*764 FILLER_2_195
*765 FILLER_2_197
*766 FILLER_2_209
*767 FILLER_2_221
*768 FILLER_2_233
*769 FILLER_2_245
*770 FILLER_2_251
*771 FILLER_2_253
*772 FILLER_2_265
*773 FILLER_2_27
*774 FILLER_2_277
*775 FILLER_2_289
*776 FILLER_2_29
*777 FILLER_2_297
*778 FILLER_2_3
*779 FILLER_2_41
*780 FILLER_2_53
*781 FILLER_2_65
*782 FILLER_2_77
*783 FILLER_2_83
*784 FILLER_2_85
*785 FILLER_2_97
*786 FILLER_30_109
*787 FILLER_30_121
*788 FILLER_30_133
*789 FILLER_30_139
*790 FILLER_30_141
*791 FILLER_30_153
*792 FILLER_30_165
*793 FILLER_30_177
*794 FILLER_30_189
*795 FILLER_30_195
*796 FILLER_30_197
*797 FILLER_30_209
*798 FILLER_30_221
*799 FILLER_30_233
*800 FILLER_30_24
*801 FILLER_30_245
*802 FILLER_30_251
*803 FILLER_30_253
*804 FILLER_30_265
*805 FILLER_30_277
*806 FILLER_30_289
*807 FILLER_30_29
*808 FILLER_30_297
*809 FILLER_30_3
*810 FILLER_30_41
*811 FILLER_30_53
*812 FILLER_30_65
*813 FILLER_30_77
*814 FILLER_30_83
*815 FILLER_30_85
*816 FILLER_30_97
*817 FILLER_31_105
*818 FILLER_31_111
*819 FILLER_31_113
*820 FILLER_31_125
*821 FILLER_31_137
*822 FILLER_31_149
*823 FILLER_31_161
*824 FILLER_31_167
*825 FILLER_31_169
*826 FILLER_31_181
*827 FILLER_31_193
*828 FILLER_31_205
*829 FILLER_31_217
*830 FILLER_31_223
*831 FILLER_31_225
*832 FILLER_31_237
*833 FILLER_31_249
*834 FILLER_31_261
*835 FILLER_31_27
*836 FILLER_31_273
*837 FILLER_31_279
*838 FILLER_31_281
*839 FILLER_31_293
*840 FILLER_31_3
*841 FILLER_31_35
*842 FILLER_31_47
*843 FILLER_31_55
*844 FILLER_31_57
*845 FILLER_31_69
*846 FILLER_31_81
*847 FILLER_31_93
*848 FILLER_32_109
*849 FILLER_32_121
*850 FILLER_32_133
*851 FILLER_32_139
*852 FILLER_32_141
*853 FILLER_32_153
*854 FILLER_32_165
*855 FILLER_32_177
*856 FILLER_32_189
*857 FILLER_32_195
*858 FILLER_32_197
*859 FILLER_32_209
*860 FILLER_32_221
*861 FILLER_32_233
*862 FILLER_32_24
*863 FILLER_32_245
*864 FILLER_32_251
*865 FILLER_32_253
*866 FILLER_32_265
*867 FILLER_32_277
*868 FILLER_32_289
*869 FILLER_32_297
*870 FILLER_32_3
*871 FILLER_32_37
*872 FILLER_32_49
*873 FILLER_32_61
*874 FILLER_32_73
*875 FILLER_32_81
*876 FILLER_32_85
*877 FILLER_32_97
*878 FILLER_33_105
*879 FILLER_33_111
*880 FILLER_33_113
*881 FILLER_33_125
*882 FILLER_33_137
*883 FILLER_33_149
*884 FILLER_33_161
*885 FILLER_33_167
*886 FILLER_33_169
*887 FILLER_33_181
*888 FILLER_33_193
*889 FILLER_33_205
*890 FILLER_33_217
*891 FILLER_33_223
*892 FILLER_33_225
*893 FILLER_33_237
*894 FILLER_33_249
*895 FILLER_33_25
*896 FILLER_33_261
*897 FILLER_33_273
*898 FILLER_33_279
*899 FILLER_33_281
*900 FILLER_33_293
*901 FILLER_33_3
*902 FILLER_33_39
*903 FILLER_33_51
*904 FILLER_33_55
*905 FILLER_33_57
*906 FILLER_33_69
*907 FILLER_33_81
*908 FILLER_33_93
*909 FILLER_34_109
*910 FILLER_34_121
*911 FILLER_34_133
*912 FILLER_34_139
*913 FILLER_34_141
*914 FILLER_34_153
*915 FILLER_34_165
*916 FILLER_34_177
*917 FILLER_34_189
*918 FILLER_34_195
*919 FILLER_34_197
*920 FILLER_34_209
*921 FILLER_34_221
*922 FILLER_34_233
*923 FILLER_34_24
*924 FILLER_34_245
*925 FILLER_34_251
*926 FILLER_34_253
*927 FILLER_34_265
*928 FILLER_34_277
*929 FILLER_34_289
*930 FILLER_34_29
*931 FILLER_34_297
*932 FILLER_34_3
*933 FILLER_34_41
*934 FILLER_34_53
*935 FILLER_34_65
*936 FILLER_34_77
*937 FILLER_34_83
*938 FILLER_34_85
*939 FILLER_34_97
*940 FILLER_35_105
*941 FILLER_35_111
*942 FILLER_35_113
*943 FILLER_35_125
*944 FILLER_35_137
*945 FILLER_35_149
*946 FILLER_35_161
*947 FILLER_35_167
*948 FILLER_35_169
*949 FILLER_35_181
*950 FILLER_35_193
*951 FILLER_35_205
*952 FILLER_35_217
*953 FILLER_35_223
*954 FILLER_35_225
*955 FILLER_35_237
*956 FILLER_35_249
*957 FILLER_35_261
*958 FILLER_35_273
*959 FILLER_35_279
*960 FILLER_35_281
*961 FILLER_35_293
*962 FILLER_35_3
*963 FILLER_35_31
*964 FILLER_35_42
*965 FILLER_35_50
*966 FILLER_35_57
*967 FILLER_35_69
*968 FILLER_35_81
*969 FILLER_35_93
*970 FILLER_36_109
*971 FILLER_36_121
*972 FILLER_36_133
*973 FILLER_36_139
*974 FILLER_36_141
*975 FILLER_36_153
*976 FILLER_36_165
*977 FILLER_36_177
*978 FILLER_36_189
*979 FILLER_36_195
*980 FILLER_36_197
*981 FILLER_36_209
*982 FILLER_36_221
*983 FILLER_36_233
*984 FILLER_36_24
*985 FILLER_36_245
*986 FILLER_36_251
*987 FILLER_36_253
*988 FILLER_36_265
*989 FILLER_36_277
*990 FILLER_36_289
*991 FILLER_36_29
*992 FILLER_36_297
*993 FILLER_36_3
*994 FILLER_36_41
*995 FILLER_36_53
*996 FILLER_36_65
*997 FILLER_36_77
*998 FILLER_36_83
*999 FILLER_36_85
*1000 FILLER_36_97
*1001 FILLER_37_105
*1002 FILLER_37_111
*1003 FILLER_37_113
*1004 FILLER_37_12
*1005 FILLER_37_125
*1006 FILLER_37_137
*1007 FILLER_37_149
*1008 FILLER_37_161
*1009 FILLER_37_167
*1010 FILLER_37_169
*1011 FILLER_37_181
*1012 FILLER_37_193
*1013 FILLER_37_205
*1014 FILLER_37_217
*1015 FILLER_37_223
*1016 FILLER_37_225
*1017 FILLER_37_237
*1018 FILLER_37_249
*1019 FILLER_37_261
*1020 FILLER_37_273
*1021 FILLER_37_279
*1022 FILLER_37_281
*1023 FILLER_37_293
*1024 FILLER_37_3
*1025 FILLER_37_36
*1026 FILLER_37_48
*1027 FILLER_37_57
*1028 FILLER_37_69
*1029 FILLER_37_81
*1030 FILLER_37_93
*1031 FILLER_38_109
*1032 FILLER_38_121
*1033 FILLER_38_133
*1034 FILLER_38_139
*1035 FILLER_38_141
*1036 FILLER_38_153
*1037 FILLER_38_16
*1038 FILLER_38_165
*1039 FILLER_38_177
*1040 FILLER_38_189
*1041 FILLER_38_195
*1042 FILLER_38_197
*1043 FILLER_38_209
*1044 FILLER_38_221
*1045 FILLER_38_233
*1046 FILLER_38_245
*1047 FILLER_38_251
*1048 FILLER_38_253
*1049 FILLER_38_265
*1050 FILLER_38_277
*1051 FILLER_38_289
*1052 FILLER_38_29
*1053 FILLER_38_297
*1054 FILLER_38_41
*1055 FILLER_38_53
*1056 FILLER_38_65
*1057 FILLER_38_77
*1058 FILLER_38_83
*1059 FILLER_38_85
*1060 FILLER_38_97
*1061 FILLER_39_105
*1062 FILLER_39_111
*1063 FILLER_39_113
*1064 FILLER_39_125
*1065 FILLER_39_137
*1066 FILLER_39_149
*1067 FILLER_39_161
*1068 FILLER_39_167
*1069 FILLER_39_169
*1070 FILLER_39_181
*1071 FILLER_39_193
*1072 FILLER_39_20
*1073 FILLER_39_205
*1074 FILLER_39_217
*1075 FILLER_39_223
*1076 FILLER_39_225
*1077 FILLER_39_237
*1078 FILLER_39_249
*1079 FILLER_39_261
*1080 FILLER_39_273
*1081 FILLER_39_279
*1082 FILLER_39_28
*1083 FILLER_39_281
*1084 FILLER_39_293
*1085 FILLER_39_3
*1086 FILLER_39_40
*1087 FILLER_39_52
*1088 FILLER_39_57
*1089 FILLER_39_69
*1090 FILLER_39_81
*1091 FILLER_39_93
*1092 FILLER_3_105
*1093 FILLER_3_111
*1094 FILLER_3_113
*1095 FILLER_3_125
*1096 FILLER_3_137
*1097 FILLER_3_149
*1098 FILLER_3_15
*1099 FILLER_3_161
*1100 FILLER_3_167
*1101 FILLER_3_169
*1102 FILLER_3_181
*1103 FILLER_3_193
*1104 FILLER_3_205
*1105 FILLER_3_217
*1106 FILLER_3_223
*1107 FILLER_3_225
*1108 FILLER_3_237
*1109 FILLER_3_249
*1110 FILLER_3_261
*1111 FILLER_3_27
*1112 FILLER_3_273
*1113 FILLER_3_279
*1114 FILLER_3_281
*1115 FILLER_3_293
*1116 FILLER_3_3
*1117 FILLER_3_39
*1118 FILLER_3_51
*1119 FILLER_3_55
*1120 FILLER_3_57
*1121 FILLER_3_69
*1122 FILLER_3_81
*1123 FILLER_3_93
*1124 FILLER_40_109
*1125 FILLER_40_121
*1126 FILLER_40_133
*1127 FILLER_40_139
*1128 FILLER_40_141
*1129 FILLER_40_153
*1130 FILLER_40_16
*1131 FILLER_40_165
*1132 FILLER_40_177
*1133 FILLER_40_189
*1134 FILLER_40_195
*1135 FILLER_40_197
*1136 FILLER_40_209
*1137 FILLER_40_221
*1138 FILLER_40_233
*1139 FILLER_40_245
*1140 FILLER_40_251
*1141 FILLER_40_253
*1142 FILLER_40_265
*1143 FILLER_40_277
*1144 FILLER_40_289
*1145 FILLER_40_297
*1146 FILLER_40_36
*1147 FILLER_40_48
*1148 FILLER_40_60
*1149 FILLER_40_72
*1150 FILLER_40_85
*1151 FILLER_40_97
*1152 FILLER_41_105
*1153 FILLER_41_111
*1154 FILLER_41_113
*1155 FILLER_41_125
*1156 FILLER_41_137
*1157 FILLER_41_149
*1158 FILLER_41_161
*1159 FILLER_41_167
*1160 FILLER_41_169
*1161 FILLER_41_181
*1162 FILLER_41_193
*1163 FILLER_41_205
*1164 FILLER_41_217
*1165 FILLER_41_223
*1166 FILLER_41_225
*1167 FILLER_41_237
*1168 FILLER_41_249
*1169 FILLER_41_261
*1170 FILLER_41_27
*1171 FILLER_41_273
*1172 FILLER_41_279
*1173 FILLER_41_281
*1174 FILLER_41_293
*1175 FILLER_41_3
*1176 FILLER_41_39
*1177 FILLER_41_51
*1178 FILLER_41_55
*1179 FILLER_41_57
*1180 FILLER_41_69
*1181 FILLER_41_81
*1182 FILLER_41_93
*1183 FILLER_42_10
*1184 FILLER_42_109
*1185 FILLER_42_121
*1186 FILLER_42_133
*1187 FILLER_42_139
*1188 FILLER_42_141
*1189 FILLER_42_153
*1190 FILLER_42_165
*1191 FILLER_42_177
*1192 FILLER_42_189
*1193 FILLER_42_195
*1194 FILLER_42_197
*1195 FILLER_42_209
*1196 FILLER_42_22
*1197 FILLER_42_221
*1198 FILLER_42_233
*1199 FILLER_42_245
*1200 FILLER_42_251
*1201 FILLER_42_253
*1202 FILLER_42_265
*1203 FILLER_42_277
*1204 FILLER_42_289
*1205 FILLER_42_29
*1206 FILLER_42_297
*1207 FILLER_42_3
*1208 FILLER_42_41
*1209 FILLER_42_53
*1210 FILLER_42_65
*1211 FILLER_42_77
*1212 FILLER_42_83
*1213 FILLER_42_85
*1214 FILLER_42_97
*1215 FILLER_43_105
*1216 FILLER_43_111
*1217 FILLER_43_113
*1218 FILLER_43_125
*1219 FILLER_43_137
*1220 FILLER_43_149
*1221 FILLER_43_15
*1222 FILLER_43_161
*1223 FILLER_43_167
*1224 FILLER_43_169
*1225 FILLER_43_181
*1226 FILLER_43_193
*1227 FILLER_43_205
*1228 FILLER_43_217
*1229 FILLER_43_223
*1230 FILLER_43_225
*1231 FILLER_43_237
*1232 FILLER_43_249
*1233 FILLER_43_261
*1234 FILLER_43_27
*1235 FILLER_43_273
*1236 FILLER_43_279
*1237 FILLER_43_281
*1238 FILLER_43_293
*1239 FILLER_43_3
*1240 FILLER_43_39
*1241 FILLER_43_51
*1242 FILLER_43_55
*1243 FILLER_43_57
*1244 FILLER_43_69
*1245 FILLER_43_81
*1246 FILLER_43_93
*1247 FILLER_44_109
*1248 FILLER_44_121
*1249 FILLER_44_133
*1250 FILLER_44_139
*1251 FILLER_44_141
*1252 FILLER_44_15
*1253 FILLER_44_153
*1254 FILLER_44_165
*1255 FILLER_44_177
*1256 FILLER_44_189
*1257 FILLER_44_195
*1258 FILLER_44_197
*1259 FILLER_44_209
*1260 FILLER_44_221
*1261 FILLER_44_233
*1262 FILLER_44_245
*1263 FILLER_44_251
*1264 FILLER_44_253
*1265 FILLER_44_265
*1266 FILLER_44_27
*1267 FILLER_44_277
*1268 FILLER_44_289
*1269 FILLER_44_29
*1270 FILLER_44_297
*1271 FILLER_44_3
*1272 FILLER_44_41
*1273 FILLER_44_53
*1274 FILLER_44_65
*1275 FILLER_44_77
*1276 FILLER_44_83
*1277 FILLER_44_85
*1278 FILLER_44_97
*1279 FILLER_45_105
*1280 FILLER_45_111
*1281 FILLER_45_113
*1282 FILLER_45_125
*1283 FILLER_45_137
*1284 FILLER_45_149
*1285 FILLER_45_15
*1286 FILLER_45_161
*1287 FILLER_45_167
*1288 FILLER_45_169
*1289 FILLER_45_181
*1290 FILLER_45_193
*1291 FILLER_45_205
*1292 FILLER_45_217
*1293 FILLER_45_223
*1294 FILLER_45_225
*1295 FILLER_45_237
*1296 FILLER_45_249
*1297 FILLER_45_261
*1298 FILLER_45_27
*1299 FILLER_45_273
*1300 FILLER_45_279
*1301 FILLER_45_281
*1302 FILLER_45_293
*1303 FILLER_45_3
*1304 FILLER_45_39
*1305 FILLER_45_51
*1306 FILLER_45_55
*1307 FILLER_45_57
*1308 FILLER_45_69
*1309 FILLER_45_81
*1310 FILLER_45_93
*1311 FILLER_46_109
*1312 FILLER_46_121
*1313 FILLER_46_133
*1314 FILLER_46_139
*1315 FILLER_46_141
*1316 FILLER_46_153
*1317 FILLER_46_16
*1318 FILLER_46_165
*1319 FILLER_46_177
*1320 FILLER_46_189
*1321 FILLER_46_195
*1322 FILLER_46_197
*1323 FILLER_46_209
*1324 FILLER_46_221
*1325 FILLER_46_233
*1326 FILLER_46_245
*1327 FILLER_46_251
*1328 FILLER_46_253
*1329 FILLER_46_265
*1330 FILLER_46_277
*1331 FILLER_46_289
*1332 FILLER_46_29
*1333 FILLER_46_297
*1334 FILLER_46_3
*1335 FILLER_46_41
*1336 FILLER_46_53
*1337 FILLER_46_65
*1338 FILLER_46_77
*1339 FILLER_46_83
*1340 FILLER_46_85
*1341 FILLER_46_9
*1342 FILLER_46_97
*1343 FILLER_47_105
*1344 FILLER_47_111
*1345 FILLER_47_113
*1346 FILLER_47_125
*1347 FILLER_47_137
*1348 FILLER_47_149
*1349 FILLER_47_15
*1350 FILLER_47_161
*1351 FILLER_47_167
*1352 FILLER_47_169
*1353 FILLER_47_181
*1354 FILLER_47_193
*1355 FILLER_47_205
*1356 FILLER_47_217
*1357 FILLER_47_223
*1358 FILLER_47_225
*1359 FILLER_47_237
*1360 FILLER_47_249
*1361 FILLER_47_261
*1362 FILLER_47_27
*1363 FILLER_47_273
*1364 FILLER_47_279
*1365 FILLER_47_281
*1366 FILLER_47_293
*1367 FILLER_47_3
*1368 FILLER_47_39
*1369 FILLER_47_51
*1370 FILLER_47_55
*1371 FILLER_47_57
*1372 FILLER_47_69
*1373 FILLER_47_81
*1374 FILLER_47_93
*1375 FILLER_48_109
*1376 FILLER_48_121
*1377 FILLER_48_133
*1378 FILLER_48_139
*1379 FILLER_48_141
*1380 FILLER_48_15
*1381 FILLER_48_153
*1382 FILLER_48_165
*1383 FILLER_48_177
*1384 FILLER_48_189
*1385 FILLER_48_195
*1386 FILLER_48_197
*1387 FILLER_48_209
*1388 FILLER_48_221
*1389 FILLER_48_233
*1390 FILLER_48_245
*1391 FILLER_48_251
*1392 FILLER_48_253
*1393 FILLER_48_265
*1394 FILLER_48_27
*1395 FILLER_48_277
*1396 FILLER_48_289
*1397 FILLER_48_29
*1398 FILLER_48_297
*1399 FILLER_48_3
*1400 FILLER_48_41
*1401 FILLER_48_53
*1402 FILLER_48_65
*1403 FILLER_48_77
*1404 FILLER_48_83
*1405 FILLER_48_85
*1406 FILLER_48_97
*1407 FILLER_49_105
*1408 FILLER_49_111
*1409 FILLER_49_113
*1410 FILLER_49_125
*1411 FILLER_49_137
*1412 FILLER_49_149
*1413 FILLER_49_15
*1414 FILLER_49_161
*1415 FILLER_49_167
*1416 FILLER_49_169
*1417 FILLER_49_181
*1418 FILLER_49_193
*1419 FILLER_49_205
*1420 FILLER_49_217
*1421 FILLER_49_223
*1422 FILLER_49_225
*1423 FILLER_49_237
*1424 FILLER_49_249
*1425 FILLER_49_261
*1426 FILLER_49_27
*1427 FILLER_49_273
*1428 FILLER_49_279
*1429 FILLER_49_281
*1430 FILLER_49_293
*1431 FILLER_49_3
*1432 FILLER_49_39
*1433 FILLER_49_51
*1434 FILLER_49_55
*1435 FILLER_49_57
*1436 FILLER_49_69
*1437 FILLER_49_81
*1438 FILLER_49_93
*1439 FILLER_4_109
*1440 FILLER_4_121
*1441 FILLER_4_133
*1442 FILLER_4_139
*1443 FILLER_4_141
*1444 FILLER_4_15
*1445 FILLER_4_153
*1446 FILLER_4_165
*1447 FILLER_4_177
*1448 FILLER_4_189
*1449 FILLER_4_195
*1450 FILLER_4_197
*1451 FILLER_4_209
*1452 FILLER_4_221
*1453 FILLER_4_233
*1454 FILLER_4_245
*1455 FILLER_4_251
*1456 FILLER_4_253
*1457 FILLER_4_265
*1458 FILLER_4_27
*1459 FILLER_4_277
*1460 FILLER_4_289
*1461 FILLER_4_29
*1462 FILLER_4_297
*1463 FILLER_4_3
*1464 FILLER_4_41
*1465 FILLER_4_53
*1466 FILLER_4_65
*1467 FILLER_4_77
*1468 FILLER_4_83
*1469 FILLER_4_85
*1470 FILLER_4_97
*1471 FILLER_50_109
*1472 FILLER_50_121
*1473 FILLER_50_133
*1474 FILLER_50_139
*1475 FILLER_50_141
*1476 FILLER_50_153
*1477 FILLER_50_165
*1478 FILLER_50_177
*1479 FILLER_50_18
*1480 FILLER_50_189
*1481 FILLER_50_195
*1482 FILLER_50_197
*1483 FILLER_50_209
*1484 FILLER_50_221
*1485 FILLER_50_233
*1486 FILLER_50_245
*1487 FILLER_50_251
*1488 FILLER_50_253
*1489 FILLER_50_26
*1490 FILLER_50_265
*1491 FILLER_50_277
*1492 FILLER_50_289
*1493 FILLER_50_29
*1494 FILLER_50_297
*1495 FILLER_50_41
*1496 FILLER_50_53
*1497 FILLER_50_6
*1498 FILLER_50_65
*1499 FILLER_50_77
*1500 FILLER_50_83
*1501 FILLER_50_85
*1502 FILLER_50_97
*1503 FILLER_51_105
*1504 FILLER_51_111
*1505 FILLER_51_113
*1506 FILLER_51_125
*1507 FILLER_51_137
*1508 FILLER_51_149
*1509 FILLER_51_15
*1510 FILLER_51_161
*1511 FILLER_51_167
*1512 FILLER_51_169
*1513 FILLER_51_181
*1514 FILLER_51_193
*1515 FILLER_51_205
*1516 FILLER_51_217
*1517 FILLER_51_223
*1518 FILLER_51_225
*1519 FILLER_51_237
*1520 FILLER_51_249
*1521 FILLER_51_261
*1522 FILLER_51_27
*1523 FILLER_51_273
*1524 FILLER_51_279
*1525 FILLER_51_281
*1526 FILLER_51_293
*1527 FILLER_51_3
*1528 FILLER_51_39
*1529 FILLER_51_51
*1530 FILLER_51_55
*1531 FILLER_51_57
*1532 FILLER_51_69
*1533 FILLER_51_81
*1534 FILLER_51_93
*1535 FILLER_52_109
*1536 FILLER_52_121
*1537 FILLER_52_133
*1538 FILLER_52_139
*1539 FILLER_52_141
*1540 FILLER_52_15
*1541 FILLER_52_153
*1542 FILLER_52_165
*1543 FILLER_52_177
*1544 FILLER_52_189
*1545 FILLER_52_195
*1546 FILLER_52_197
*1547 FILLER_52_209
*1548 FILLER_52_221
*1549 FILLER_52_233
*1550 FILLER_52_245
*1551 FILLER_52_251
*1552 FILLER_52_253
*1553 FILLER_52_265
*1554 FILLER_52_27
*1555 FILLER_52_277
*1556 FILLER_52_289
*1557 FILLER_52_29
*1558 FILLER_52_297
*1559 FILLER_52_3
*1560 FILLER_52_41
*1561 FILLER_52_53
*1562 FILLER_52_65
*1563 FILLER_52_77
*1564 FILLER_52_83
*1565 FILLER_52_85
*1566 FILLER_52_97
*1567 FILLER_53_105
*1568 FILLER_53_111
*1569 FILLER_53_113
*1570 FILLER_53_125
*1571 FILLER_53_137
*1572 FILLER_53_149
*1573 FILLER_53_15
*1574 FILLER_53_161
*1575 FILLER_53_167
*1576 FILLER_53_169
*1577 FILLER_53_181
*1578 FILLER_53_193
*1579 FILLER_53_205
*1580 FILLER_53_217
*1581 FILLER_53_223
*1582 FILLER_53_225
*1583 FILLER_53_237
*1584 FILLER_53_249
*1585 FILLER_53_261
*1586 FILLER_53_27
*1587 FILLER_53_273