*SPEF "ieee 1481-1999"
*DESIGN "user_module_341516949939814994"
*DATE "11:11:11 Fri 11 11, 1111"
*VENDOR "OpenRCX"
*PROGRAM "Parallel Extraction"
*VERSION "1.0"
*DESIGN_FLOW "NAME_SCOPE LOCAL" "PIN_CAP NONE"
*DIVIDER /
*DELIMITER :
*BUS_DELIMITER []
*T_UNIT 1 NS
*C_UNIT 1 PF
*R_UNIT 1 OHM
*L_UNIT 1 HENRY

*NAME_MAP
*1 io_in[0]
*2 io_in[1]
*3 io_in[2]
*4 io_in[3]
*5 io_in[4]
*6 io_in[5]
*7 io_in[6]
*8 io_in[7]
*9 io_out[0]
*10 net2
*11 net3
*12 net4
*13 net5
*14 net6
*15 net7
*16 net8
*19 _00_
*20 _01_
*21 _02_
*22 _03_
*23 _04_
*24 _05_
*25 _06_
*26 _07_
*27 _08_
*28 _09_
*29 _10_
*30 _11_
*31 _12_
*32 clknet_0_io_in[0]
*33 clknet_2_0__leaf_io_in[0]
*34 clknet_2_1__leaf_io_in[0]
*35 clknet_2_2__leaf_io_in[0]
*36 clknet_2_3__leaf_io_in[0]
*37 flipflop10\.d
*38 flipflop10\.q
*39 flipflop11\.q
*40 flipflop12\.q
*41 flipflop13\.q
*42 flipflop14\.q
*43 flipflop15\.q
*44 flipflop16\.q
*45 flipflop17\.q
*46 flipflop18\.q
*47 flipflop19\.q
*48 flipflop2\.q
*49 flipflop20\.q
*50 flipflop21\.q
*51 flipflop22\.q
*52 flipflop23\.q
*53 flipflop24\.q
*54 flipflop25\.q
*55 flipflop26\.q
*56 flipflop27\.q
*57 flipflop28\.q
*58 flipflop29\.q
*59 flipflop3\.q
*60 flipflop30\.q
*61 flipflop31\.q
*62 flipflop32\.q
*63 flipflop33\.q
*64 flipflop34\.q
*65 flipflop35\.q
*66 flipflop36\.q
*67 flipflop37\.q
*68 flipflop38\.q
*69 flipflop39\.q
*70 flipflop4\.q
*71 flipflop40\.q
*72 flipflop41\.q
*73 flipflop5\.q
*74 flipflop6\.q
*75 flipflop7\.q
*76 flipflop8\.q
*77 gate124\.out
*78 net1
*79 net10
*80 net11
*81 net12
*82 net13
*83 net14
*84 net15
*85 net16
*86 net17
*87 net18
*88 net19
*89 net20
*90 net21
*91 net22
*92 net23
*93 net24
*94 net25
*95 net26
*96 net27
*97 net28
*98 net29
*99 net30
*100 net31
*101 net32
*102 net33
*103 net34
*104 net35
*105 net36
*106 net37
*107 net38
*108 net9
*109 FILLER_0_109
*110 FILLER_0_113
*111 FILLER_0_125
*112 FILLER_0_137
*113 FILLER_0_141
*114 FILLER_0_15
*115 FILLER_0_153
*116 FILLER_0_165
*117 FILLER_0_169
*118 FILLER_0_181
*119 FILLER_0_193
*120 FILLER_0_197
*121 FILLER_0_209
*122 FILLER_0_221
*123 FILLER_0_225
*124 FILLER_0_237
*125 FILLER_0_249
*126 FILLER_0_253
*127 FILLER_0_265
*128 FILLER_0_27
*129 FILLER_0_277
*130 FILLER_0_281
*131 FILLER_0_29
*132 FILLER_0_293
*133 FILLER_0_3
*134 FILLER_0_40
*135 FILLER_0_52
*136 FILLER_0_57
*137 FILLER_0_69
*138 FILLER_0_81
*139 FILLER_0_85
*140 FILLER_0_97
*141 FILLER_10_10
*142 FILLER_10_109
*143 FILLER_10_129
*144 FILLER_10_137
*145 FILLER_10_141
*146 FILLER_10_153
*147 FILLER_10_165
*148 FILLER_10_177
*149 FILLER_10_189
*150 FILLER_10_195
*151 FILLER_10_197
*152 FILLER_10_209
*153 FILLER_10_221
*154 FILLER_10_233
*155 FILLER_10_24
*156 FILLER_10_245
*157 FILLER_10_251
*158 FILLER_10_253
*159 FILLER_10_265
*160 FILLER_10_277
*161 FILLER_10_289
*162 FILLER_10_29
*163 FILLER_10_297
*164 FILLER_10_35
*165 FILLER_10_52
*166 FILLER_10_72
*167 FILLER_10_85
*168 FILLER_11_108
*169 FILLER_11_12
*170 FILLER_11_129
*171 FILLER_11_141
*172 FILLER_11_153
*173 FILLER_11_165
*174 FILLER_11_169
*175 FILLER_11_181
*176 FILLER_11_193
*177 FILLER_11_205
*178 FILLER_11_217
*179 FILLER_11_223
*180 FILLER_11_225
*181 FILLER_11_237
*182 FILLER_11_249
*183 FILLER_11_261
*184 FILLER_11_273
*185 FILLER_11_279
*186 FILLER_11_281
*187 FILLER_11_293
*188 FILLER_11_3
*189 FILLER_11_36
*190 FILLER_11_52
*191 FILLER_11_57
*192 FILLER_11_75
*193 FILLER_11_79
*194 FILLER_11_88
*195 FILLER_12_109
*196 FILLER_12_129
*197 FILLER_12_137
*198 FILLER_12_141
*199 FILLER_12_153
*200 FILLER_12_165
*201 FILLER_12_177
*202 FILLER_12_189
*203 FILLER_12_195
*204 FILLER_12_197
*205 FILLER_12_209
*206 FILLER_12_21
*207 FILLER_12_221
*208 FILLER_12_233
*209 FILLER_12_245
*210 FILLER_12_251
*211 FILLER_12_253
*212 FILLER_12_265
*213 FILLER_12_27
*214 FILLER_12_277
*215 FILLER_12_289
*216 FILLER_12_29
*217 FILLER_12_297
*218 FILLER_12_3
*219 FILLER_12_37
*220 FILLER_12_55
*221 FILLER_12_75
*222 FILLER_12_83
*223 FILLER_12_85
*224 FILLER_13_108
*225 FILLER_13_129
*226 FILLER_13_141
*227 FILLER_13_15
*228 FILLER_13_153
*229 FILLER_13_165
*230 FILLER_13_169
*231 FILLER_13_181
*232 FILLER_13_193
*233 FILLER_13_205
*234 FILLER_13_217
*235 FILLER_13_223
*236 FILLER_13_225
*237 FILLER_13_237
*238 FILLER_13_249
*239 FILLER_13_261
*240 FILLER_13_273
*241 FILLER_13_279
*242 FILLER_13_281
*243 FILLER_13_293
*244 FILLER_13_3
*245 FILLER_13_32
*246 FILLER_13_46
*247 FILLER_13_54
*248 FILLER_13_57
*249 FILLER_13_75
*250 FILLER_13_87
*251 FILLER_13_91
*252 FILLER_14_109
*253 FILLER_14_11
*254 FILLER_14_129
*255 FILLER_14_137
*256 FILLER_14_141
*257 FILLER_14_153
*258 FILLER_14_165
*259 FILLER_14_177
*260 FILLER_14_189
*261 FILLER_14_195
*262 FILLER_14_197
*263 FILLER_14_209
*264 FILLER_14_221
*265 FILLER_14_233
*266 FILLER_14_24
*267 FILLER_14_245
*268 FILLER_14_251
*269 FILLER_14_253
*270 FILLER_14_265
*271 FILLER_14_277
*272 FILLER_14_289
*273 FILLER_14_297
*274 FILLER_14_3
*275 FILLER_14_39
*276 FILLER_14_61
*277 FILLER_14_67
*278 FILLER_14_76
*279 FILLER_14_85
*280 FILLER_15_108
*281 FILLER_15_121
*282 FILLER_15_133
*283 FILLER_15_145
*284 FILLER_15_15
*285 FILLER_15_157
*286 FILLER_15_165
*287 FILLER_15_169
*288 FILLER_15_181
*289 FILLER_15_193
*290 FILLER_15_205
*291 FILLER_15_217
*292 FILLER_15_223
*293 FILLER_15_225
*294 FILLER_15_237
*295 FILLER_15_249
*296 FILLER_15_261
*297 FILLER_15_273
*298 FILLER_15_279
*299 FILLER_15_281
*300 FILLER_15_293
*301 FILLER_15_3
*302 FILLER_15_32
*303 FILLER_15_46
*304 FILLER_15_54
*305 FILLER_15_64
*306 FILLER_15_76
*307 FILLER_15_80
*308 FILLER_15_89
*309 FILLER_15_97
*310 FILLER_16_109
*311 FILLER_16_121
*312 FILLER_16_133
*313 FILLER_16_139
*314 FILLER_16_141
*315 FILLER_16_15
*316 FILLER_16_153
*317 FILLER_16_165
*318 FILLER_16_177
*319 FILLER_16_189
*320 FILLER_16_195
*321 FILLER_16_197
*322 FILLER_16_209
*323 FILLER_16_221
*324 FILLER_16_233
*325 FILLER_16_245
*326 FILLER_16_251
*327 FILLER_16_253
*328 FILLER_16_265
*329 FILLER_16_27
*330 FILLER_16_277
*331 FILLER_16_289
*332 FILLER_16_297
*333 FILLER_16_3
*334 FILLER_16_37
*335 FILLER_16_61
*336 FILLER_16_73
*337 FILLER_16_81
*338 FILLER_16_85
*339 FILLER_16_97
*340 FILLER_17_105
*341 FILLER_17_111
*342 FILLER_17_113
*343 FILLER_17_125
*344 FILLER_17_137
*345 FILLER_17_149
*346 FILLER_17_161
*347 FILLER_17_167
*348 FILLER_17_169
*349 FILLER_17_18
*350 FILLER_17_181
*351 FILLER_17_193
*352 FILLER_17_205
*353 FILLER_17_217
*354 FILLER_17_223
*355 FILLER_17_225
*356 FILLER_17_237
*357 FILLER_17_249
*358 FILLER_17_261
*359 FILLER_17_273
*360 FILLER_17_279
*361 FILLER_17_281
*362 FILLER_17_293
*363 FILLER_17_3
*364 FILLER_17_30
*365 FILLER_17_42
*366 FILLER_17_54
*367 FILLER_17_57
*368 FILLER_17_69
*369 FILLER_17_7
*370 FILLER_17_81
*371 FILLER_17_93
*372 FILLER_18_109
*373 FILLER_18_121
*374 FILLER_18_133
*375 FILLER_18_139
*376 FILLER_18_141
*377 FILLER_18_15
*378 FILLER_18_153
*379 FILLER_18_165
*380 FILLER_18_177
*381 FILLER_18_189
*382 FILLER_18_195
*383 FILLER_18_197
*384 FILLER_18_209
*385 FILLER_18_221
*386 FILLER_18_233
*387 FILLER_18_245
*388 FILLER_18_251
*389 FILLER_18_253
*390 FILLER_18_265
*391 FILLER_18_27
*392 FILLER_18_277
*393 FILLER_18_289
*394 FILLER_18_297
*395 FILLER_18_3
*396 FILLER_18_36
*397 FILLER_18_48
*398 FILLER_18_60
*399 FILLER_18_72
*400 FILLER_18_85
*401 FILLER_18_97
*402 FILLER_19_101
*403 FILLER_19_109
*404 FILLER_19_113
*405 FILLER_19_125
*406 FILLER_19_137
*407 FILLER_19_149
*408 FILLER_19_15
*409 FILLER_19_161
*410 FILLER_19_167
*411 FILLER_19_169
*412 FILLER_19_181
*413 FILLER_19_19
*414 FILLER_19_193
*415 FILLER_19_205
*416 FILLER_19_217
*417 FILLER_19_223
*418 FILLER_19_225
*419 FILLER_19_237
*420 FILLER_19_249
*421 FILLER_19_261
*422 FILLER_19_273
*423 FILLER_19_279
*424 FILLER_19_281
*425 FILLER_19_293
*426 FILLER_19_3
*427 FILLER_19_31
*428 FILLER_19_43
*429 FILLER_19_55
*430 FILLER_19_65
*431 FILLER_19_77
*432 FILLER_19_89
*433 FILLER_1_105
*434 FILLER_1_111
*435 FILLER_1_113
*436 FILLER_1_125
*437 FILLER_1_137
*438 FILLER_1_149
*439 FILLER_1_161
*440 FILLER_1_167
*441 FILLER_1_169
*442 FILLER_1_181
*443 FILLER_1_193
*444 FILLER_1_205
*445 FILLER_1_217
*446 FILLER_1_223
*447 FILLER_1_225
*448 FILLER_1_237
*449 FILLER_1_24
*450 FILLER_1_249
*451 FILLER_1_261
*452 FILLER_1_273
*453 FILLER_1_279
*454 FILLER_1_28
*455 FILLER_1_281
*456 FILLER_1_293
*457 FILLER_1_3
*458 FILLER_1_37
*459 FILLER_1_49
*460 FILLER_1_55
*461 FILLER_1_57
*462 FILLER_1_69
*463 FILLER_1_7
*464 FILLER_1_81
*465 FILLER_1_93
*466 FILLER_20_109
*467 FILLER_20_121
*468 FILLER_20_133
*469 FILLER_20_139
*470 FILLER_20_141
*471 FILLER_20_15
*472 FILLER_20_153
*473 FILLER_20_165
*474 FILLER_20_177
*475 FILLER_20_189
*476 FILLER_20_195
*477 FILLER_20_197
*478 FILLER_20_209
*479 FILLER_20_221
*480 FILLER_20_233
*481 FILLER_20_245
*482 FILLER_20_251
*483 FILLER_20_253
*484 FILLER_20_265
*485 FILLER_20_27
*486 FILLER_20_277
*487 FILLER_20_289
*488 FILLER_20_29
*489 FILLER_20_297
*490 FILLER_20_3
*491 FILLER_20_41
*492 FILLER_20_53
*493 FILLER_20_65
*494 FILLER_20_77
*495 FILLER_20_83
*496 FILLER_20_85
*497 FILLER_20_97
*498 FILLER_21_105
*499 FILLER_21_111
*500 FILLER_21_113
*501 FILLER_21_125
*502 FILLER_21_137
*503 FILLER_21_149
*504 FILLER_21_15
*505 FILLER_21_161
*506 FILLER_21_167
*507 FILLER_21_169
*508 FILLER_21_181
*509 FILLER_21_193
*510 FILLER_21_205
*511 FILLER_21_217
*512 FILLER_21_223
*513 FILLER_21_225
*514 FILLER_21_237
*515 FILLER_21_249
*516 FILLER_21_261
*517 FILLER_21_27
*518 FILLER_21_273
*519 FILLER_21_279
*520 FILLER_21_281
*521 FILLER_21_293
*522 FILLER_21_3
*523 FILLER_21_39
*524 FILLER_21_51
*525 FILLER_21_55
*526 FILLER_21_57
*527 FILLER_21_69
*528 FILLER_21_81
*529 FILLER_21_93
*530 FILLER_22_109
*531 FILLER_22_121
*532 FILLER_22_133
*533 FILLER_22_139
*534 FILLER_22_141
*535 FILLER_22_15
*536 FILLER_22_153
*537 FILLER_22_165
*538 FILLER_22_177
*539 FILLER_22_189
*540 FILLER_22_195
*541 FILLER_22_197
*542 FILLER_22_209
*543 FILLER_22_221
*544 FILLER_22_233
*545 FILLER_22_245
*546 FILLER_22_251
*547 FILLER_22_253
*548 FILLER_22_265
*549 FILLER_22_27
*550 FILLER_22_277
*551 FILLER_22_289
*552 FILLER_22_29
*553 FILLER_22_297
*554 FILLER_22_3
*555 FILLER_22_37
*556 FILLER_22_46
*557 FILLER_22_58
*558 FILLER_22_70
*559 FILLER_22_82
*560 FILLER_22_85
*561 FILLER_22_97
*562 FILLER_23_105
*563 FILLER_23_111
*564 FILLER_23_113
*565 FILLER_23_125
*566 FILLER_23_137
*567 FILLER_23_149
*568 FILLER_23_15
*569 FILLER_23_161
*570 FILLER_23_167
*571 FILLER_23_169
*572 FILLER_23_181
*573 FILLER_23_193
*574 FILLER_23_205
*575 FILLER_23_217
*576 FILLER_23_223
*577 FILLER_23_225
*578 FILLER_23_237
*579 FILLER_23_249
*580 FILLER_23_261
*581 FILLER_23_27
*582 FILLER_23_273
*583 FILLER_23_279
*584 FILLER_23_281
*585 FILLER_23_293
*586 FILLER_23_3
*587 FILLER_23_39
*588 FILLER_23_51
*589 FILLER_23_55
*590 FILLER_23_57
*591 FILLER_23_69
*592 FILLER_23_81
*593 FILLER_23_93
*594 FILLER_24_109
*595 FILLER_24_121
*596 FILLER_24_133
*597 FILLER_24_139
*598 FILLER_24_141
*599 FILLER_24_15
*600 FILLER_24_153
*601 FILLER_24_165
*602 FILLER_24_177
*603 FILLER_24_189
*604 FILLER_24_195
*605 FILLER_24_197
*606 FILLER_24_209
*607 FILLER_24_221
*608 FILLER_24_233
*609 FILLER_24_245
*610 FILLER_24_251
*611 FILLER_24_253
*612 FILLER_24_265
*613 FILLER_24_27
*614 FILLER_24_277
*615 FILLER_24_289
*616 FILLER_24_29
*617 FILLER_24_297
*618 FILLER_24_3
*619 FILLER_24_41
*620 FILLER_24_52
*621 FILLER_24_64
*622 FILLER_24_76
*623 FILLER_24_85
*624 FILLER_24_97
*625 FILLER_25_105
*626 FILLER_25_111
*627 FILLER_25_113
*628 FILLER_25_125
*629 FILLER_25_137
*630 FILLER_25_149
*631 FILLER_25_15
*632 FILLER_25_161
*633 FILLER_25_167
*634 FILLER_25_169
*635 FILLER_25_181
*636 FILLER_25_193
*637 FILLER_25_205
*638 FILLER_25_217
*639 FILLER_25_223
*640 FILLER_25_225
*641 FILLER_25_237
*642 FILLER_25_249
*643 FILLER_25_261
*644 FILLER_25_27
*645 FILLER_25_273
*646 FILLER_25_279
*647 FILLER_25_281
*648 FILLER_25_293
*649 FILLER_25_3
*650 FILLER_25_39
*651 FILLER_25_51
*652 FILLER_25_55
*653 FILLER_25_57
*654 FILLER_25_69
*655 FILLER_25_81
*656 FILLER_25_93
*657 FILLER_26_109
*658 FILLER_26_121
*659 FILLER_26_133
*660 FILLER_26_139
*661 FILLER_26_141
*662 FILLER_26_15
*663 FILLER_26_153
*664 FILLER_26_165
*665 FILLER_26_177
*666 FILLER_26_189
*667 FILLER_26_195
*668 FILLER_26_197
*669 FILLER_26_209
*670 FILLER_26_221
*671 FILLER_26_233
*672 FILLER_26_245
*673 FILLER_26_251
*674 FILLER_26_253
*675 FILLER_26_265
*676 FILLER_26_27
*677 FILLER_26_277
*678 FILLER_26_289
*679 FILLER_26_29
*680 FILLER_26_297
*681 FILLER_26_3
*682 FILLER_26_41
*683 FILLER_26_53
*684 FILLER_26_65
*685 FILLER_26_77
*686 FILLER_26_83
*687 FILLER_26_85
*688 FILLER_26_97
*689 FILLER_27_105
*690 FILLER_27_111
*691 FILLER_27_113
*692 FILLER_27_125
*693 FILLER_27_137
*694 FILLER_27_149
*695 FILLER_27_15
*696 FILLER_27_161
*697 FILLER_27_167
*698 FILLER_27_169
*699 FILLER_27_181
*700 FILLER_27_193
*701 FILLER_27_205
*702 FILLER_27_217
*703 FILLER_27_223
*704 FILLER_27_225
*705 FILLER_27_237
*706 FILLER_27_249
*707 FILLER_27_261
*708 FILLER_27_27
*709 FILLER_27_273
*710 FILLER_27_279
*711 FILLER_27_281
*712 FILLER_27_293
*713 FILLER_27_3
*714 FILLER_27_39
*715 FILLER_27_51
*716 FILLER_27_55
*717 FILLER_27_57
*718 FILLER_27_69
*719 FILLER_27_81
*720 FILLER_27_93
*721 FILLER_28_109
*722 FILLER_28_121
*723 FILLER_28_133
*724 FILLER_28_139
*725 FILLER_28_141
*726 FILLER_28_15
*727 FILLER_28_153
*728 FILLER_28_165
*729 FILLER_28_177
*730 FILLER_28_189
*731 FILLER_28_195
*732 FILLER_28_197
*733 FILLER_28_209
*734 FILLER_28_221
*735 FILLER_28_233
*736 FILLER_28_245
*737 FILLER_28_251
*738 FILLER_28_253
*739 FILLER_28_265
*740 FILLER_28_27
*741 FILLER_28_277
*742 FILLER_28_289
*743 FILLER_28_29
*744 FILLER_28_297
*745 FILLER_28_3
*746 FILLER_28_41
*747 FILLER_28_53
*748 FILLER_28_65
*749 FILLER_28_77
*750 FILLER_28_83
*751 FILLER_28_85
*752 FILLER_28_97
*753 FILLER_29_105
*754 FILLER_29_111
*755 FILLER_29_113
*756 FILLER_29_125
*757 FILLER_29_137
*758 FILLER_29_149
*759 FILLER_29_15
*760 FILLER_29_161
*761 FILLER_29_167
*762 FILLER_29_169
*763 FILLER_29_181
*764 FILLER_29_193
*765 FILLER_29_205
*766 FILLER_29_217
*767 FILLER_29_223
*768 FILLER_29_225
*769 FILLER_29_237
*770 FILLER_29_249
*771 FILLER_29_261
*772 FILLER_29_27
*773 FILLER_29_273
*774 FILLER_29_279
*775 FILLER_29_281
*776 FILLER_29_293
*777 FILLER_29_3
*778 FILLER_29_39
*779 FILLER_29_51
*780 FILLER_29_55
*781 FILLER_29_57
*782 FILLER_29_69
*783 FILLER_29_81
*784 FILLER_29_93
*785 FILLER_2_101
*786 FILLER_2_113
*787 FILLER_2_125
*788 FILLER_2_137
*789 FILLER_2_141
*790 FILLER_2_153
*791 FILLER_2_165
*792 FILLER_2_177
*793 FILLER_2_189
*794 FILLER_2_195
*795 FILLER_2_197
*796 FILLER_2_209
*797 FILLER_2_221
*798 FILLER_2_233
*799 FILLER_2_24
*800 FILLER_2_245
*801 FILLER_2_251
*802 FILLER_2_253
*803 FILLER_2_265
*804 FILLER_2_277
*805 FILLER_2_289
*806 FILLER_2_29
*807 FILLER_2_297
*808 FILLER_2_3
*809 FILLER_2_35
*810 FILLER_2_52
*811 FILLER_2_7
*812 FILLER_2_72
*813 FILLER_30_109
*814 FILLER_30_121
*815 FILLER_30_133
*816 FILLER_30_139
*817 FILLER_30_141
*818 FILLER_30_15
*819 FILLER_30_153
*820 FILLER_30_165
*821 FILLER_30_177
*822 FILLER_30_189
*823 FILLER_30_195
*824 FILLER_30_197
*825 FILLER_30_209
*826 FILLER_30_221
*827 FILLER_30_233
*828 FILLER_30_245
*829 FILLER_30_251
*830 FILLER_30_253
*831 FILLER_30_265
*832 FILLER_30_27
*833 FILLER_30_277
*834 FILLER_30_289
*835 FILLER_30_29
*836 FILLER_30_297
*837 FILLER_30_3
*838 FILLER_30_41
*839 FILLER_30_53
*840 FILLER_30_65
*841 FILLER_30_77
*842 FILLER_30_83
*843 FILLER_30_85
*844 FILLER_30_97
*845 FILLER_31_105
*846 FILLER_31_111
*847 FILLER_31_113
*848 FILLER_31_125
*849 FILLER_31_137
*850 FILLER_31_149
*851 FILLER_31_15
*852 FILLER_31_161
*853 FILLER_31_167
*854 FILLER_31_169
*855 FILLER_31_181
*856 FILLER_31_193
*857 FILLER_31_205
*858 FILLER_31_217
*859 FILLER_31_223
*860 FILLER_31_225
*861 FILLER_31_237
*862 FILLER_31_249
*863 FILLER_31_261
*864 FILLER_31_27
*865 FILLER_31_273
*866 FILLER_31_279
*867 FILLER_31_281
*868 FILLER_31_293
*869 FILLER_31_3
*870 FILLER_31_39
*871 FILLER_31_51
*872 FILLER_31_55
*873 FILLER_31_57
*874 FILLER_31_69
*875 FILLER_31_81
*876 FILLER_31_93
*877 FILLER_32_109
*878 FILLER_32_121
*879 FILLER_32_133
*880 FILLER_32_139
*881 FILLER_32_141
*882 FILLER_32_15
*883 FILLER_32_153
*884 FILLER_32_165
*885 FILLER_32_177
*886 FILLER_32_189
*887 FILLER_32_195
*888 FILLER_32_197
*889 FILLER_32_209
*890 FILLER_32_221
*891 FILLER_32_233
*892 FILLER_32_245
*893 FILLER_32_251
*894 FILLER_32_253
*895 FILLER_32_265
*896 FILLER_32_27
*897 FILLER_32_277
*898 FILLER_32_289
*899 FILLER_32_29
*900 FILLER_32_297
*901 FILLER_32_3
*902 FILLER_32_41
*903 FILLER_32_53
*904 FILLER_32_65
*905 FILLER_32_77
*906 FILLER_32_83
*907 FILLER_32_85
*908 FILLER_32_97
*909 FILLER_33_105
*910 FILLER_33_111
*911 FILLER_33_113
*912 FILLER_33_125
*913 FILLER_33_137
*914 FILLER_33_149
*915 FILLER_33_15
*916 FILLER_33_161
*917 FILLER_33_167
*918 FILLER_33_169
*919 FILLER_33_181
*920 FILLER_33_193
*921 FILLER_33_205
*922 FILLER_33_217
*923 FILLER_33_223
*924 FILLER_33_225
*925 FILLER_33_237
*926 FILLER_33_249
*927 FILLER_33_261
*928 FILLER_33_27
*929 FILLER_33_273
*930 FILLER_33_279
*931 FILLER_33_281
*932 FILLER_33_293
*933 FILLER_33_3
*934 FILLER_33_39
*935 FILLER_33_51
*936 FILLER_33_55
*937 FILLER_33_57
*938 FILLER_33_69
*939 FILLER_33_81
*940 FILLER_33_93
*941 FILLER_34_109
*942 FILLER_34_121
*943 FILLER_34_133
*944 FILLER_34_139
*945 FILLER_34_141
*946 FILLER_34_15
*947 FILLER_34_153
*948 FILLER_34_165
*949 FILLER_34_177
*950 FILLER_34_189
*951 FILLER_34_195
*952 FILLER_34_197
*953 FILLER_34_209
*954 FILLER_34_221
*955 FILLER_34_233
*956 FILLER_34_245
*957 FILLER_34_251
*958 FILLER_34_253
*959 FILLER_34_265
*960 FILLER_34_27
*961 FILLER_34_277
*962 FILLER_34_289
*963 FILLER_34_29
*964 FILLER_34_297
*965 FILLER_34_3
*966 FILLER_34_41
*967 FILLER_34_53
*968 FILLER_34_65
*969 FILLER_34_77
*970 FILLER_34_83
*971 FILLER_34_85
*972 FILLER_34_97
*973 FILLER_35_105
*974 FILLER_35_111
*975 FILLER_35_113
*976 FILLER_35_125
*977 FILLER_35_137
*978 FILLER_35_149
*979 FILLER_35_161
*980 FILLER_35_167
*981 FILLER_35_169
*982 FILLER_35_18
*983 FILLER_35_181
*984 FILLER_35_193
*985 FILLER_35_205
*986 FILLER_35_217
*987 FILLER_35_223
*988 FILLER_35_225
*989 FILLER_35_237
*990 FILLER_35_249
*991 FILLER_35_261
*992 FILLER_35_273
*993 FILLER_35_279
*994 FILLER_35_281
*995 FILLER_35_293
*996 FILLER_35_30
*997 FILLER_35_42
*998 FILLER_35_54
*999 FILLER_35_57
*1000 FILLER_35_6
*1001 FILLER_35_69
*1002 FILLER_35_81
*1003 FILLER_35_93
*1004 FILLER_36_109
*1005 FILLER_36_121
*1006 FILLER_36_133
*1007 FILLER_36_139
*1008 FILLER_36_141
*1009 FILLER_36_15
*1010 FILLER_36_153
*1011 FILLER_36_165
*1012 FILLER_36_177
*1013 FILLER_36_189
*1014 FILLER_36_195
*1015 FILLER_36_197
*1016 FILLER_36_209
*1017 FILLER_36_221
*1018 FILLER_36_233
*1019 FILLER_36_245
*1020 FILLER_36_251
*1021 FILLER_36_253
*1022 FILLER_36_265
*1023 FILLER_36_27
*1024 FILLER_36_277
*1025 FILLER_36_289
*1026 FILLER_36_29
*1027 FILLER_36_297
*1028 FILLER_36_3
*1029 FILLER_36_41
*1030 FILLER_36_53
*1031 FILLER_36_65
*1032 FILLER_36_77
*1033 FILLER_36_83
*1034 FILLER_36_85
*1035 FILLER_36_97
*1036 FILLER_37_105
*1037 FILLER_37_111
*1038 FILLER_37_113
*1039 FILLER_37_125
*1040 FILLER_37_137
*1041 FILLER_37_149
*1042 FILLER_37_15
*1043 FILLER_37_161
*1044 FILLER_37_167
*1045 FILLER_37_169
*1046 FILLER_37_181
*1047 FILLER_37_193
*1048 FILLER_37_205
*1049 FILLER_37_217
*1050 FILLER_37_223
*1051 FILLER_37_225
*1052 FILLER_37_237
*1053 FILLER_37_249
*1054 FILLER_37_261
*1055 FILLER_37_27
*1056 FILLER_37_273
*1057 FILLER_37_279
*1058 FILLER_37_281
*1059 FILLER_37_293
*1060 FILLER_37_3
*1061 FILLER_37_39
*1062 FILLER_37_51
*1063 FILLER_37_55
*1064 FILLER_37_57
*1065 FILLER_37_69
*1066 FILLER_37_81
*1067 FILLER_37_93
*1068 FILLER_38_109
*1069 FILLER_38_121
*1070 FILLER_38_133
*1071 FILLER_38_139
*1072 FILLER_38_141
*1073 FILLER_38_15
*1074 FILLER_38_153
*1075 FILLER_38_165
*1076 FILLER_38_177
*1077 FILLER_38_189
*1078 FILLER_38_195
*1079 FILLER_38_197
*1080 FILLER_38_209
*1081 FILLER_38_221
*1082 FILLER_38_233
*1083 FILLER_38_245
*1084 FILLER_38_251
*1085 FILLER_38_253
*1086 FILLER_38_265
*1087 FILLER_38_27
*1088 FILLER_38_277
*1089 FILLER_38_289
*1090 FILLER_38_29
*1091 FILLER_38_297
*1092 FILLER_38_3
*1093 FILLER_38_41
*1094 FILLER_38_53
*1095 FILLER_38_65
*1096 FILLER_38_77
*1097 FILLER_38_83
*1098 FILLER_38_85
*1099 FILLER_38_97
*1100 FILLER_39_105
*1101 FILLER_39_111
*1102 FILLER_39_113
*1103 FILLER_39_125
*1104 FILLER_39_137
*1105 FILLER_39_149
*1106 FILLER_39_161
*1107 FILLER_39_167
*1108 FILLER_39_169
*1109 FILLER_39_18
*1110 FILLER_39_181
*1111 FILLER_39_193
*1112 FILLER_39_205
*1113 FILLER_39_217
*1114 FILLER_39_223
*1115 FILLER_39_225
*1116 FILLER_39_237
*1117 FILLER_39_249
*1118 FILLER_39_261
*1119 FILLER_39_273
*1120 FILLER_39_279
*1121 FILLER_39_281
*1122 FILLER_39_293
*1123 FILLER_39_30
*1124 FILLER_39_42
*1125 FILLER_39_54
*1126 FILLER_39_57
*1127 FILLER_39_6
*1128 FILLER_39_69
*1129 FILLER_39_81
*1130 FILLER_39_93
*1131 FILLER_3_105
*1132 FILLER_3_111
*1133 FILLER_3_113
*1134 FILLER_3_125
*1135 FILLER_3_137
*1136 FILLER_3_14
*1137 FILLER_3_149
*1138 FILLER_3_161
*1139 FILLER_3_167
*1140 FILLER_3_169
*1141 FILLER_3_181
*1142 FILLER_3_193
*1143 FILLER_3_205
*1144 FILLER_3_217
*1145 FILLER_3_223
*1146 FILLER_3_225
*1147 FILLER_3_237
*1148 FILLER_3_249
*1149 FILLER_3_261
*1150 FILLER_3_273
*1151 FILLER_3_279
*1152 FILLER_3_281
*1153 FILLER_3_293
*1154 FILLER_3_36
*1155 FILLER_3_48
*1156 FILLER_3_6
*1157 FILLER_3_65
*1158 FILLER_3_93
*1159 FILLER_40_109
*1160 FILLER_40_121
*1161 FILLER_40_133
*1162 FILLER_40_139
*1163 FILLER_40_141
*1164 FILLER_40_15
*1165 FILLER_40_153
*1166 FILLER_40_165
*1167 FILLER_40_177
*1168 FILLER_40_189
*1169 FILLER_40_195
*1170 FILLER_40_197
*1171 FILLER_40_209
*1172 FILLER_40_221
*1173 FILLER_40_233
*1174 FILLER_40_245
*1175 FILLER_40_251
*1176 FILLER_40_253
*1177 FILLER_40_265
*1178 FILLER_40_27
*1179 FILLER_40_277
*1180 FILLER_40_289
*1181 FILLER_40_29
*1182 FILLER_40_297
*1183 FILLER_40_3
*1184 FILLER_40_41
*1185 FILLER_40_53
*1186 FILLER_40_65
*1187 FILLER_40_77
*1188 FILLER_40_83
*1189 FILLER_40_85
*1190 FILLER_40_97
*1191 FILLER_41_105
*1192 FILLER_41_111
*1193 FILLER_41_113
*1194 FILLER_41_125
*1195 FILLER_41_137
*1196 FILLER_41_149
*1197 FILLER_41_15
*1198 FILLER_41_161
*1199 FILLER_41_167
*1200 FILLER_41_169
*1201 FILLER_41_181
*1202 FILLER_41_193
*1203 FILLER_41_205
*1204 FILLER_41_217
*1205 FILLER_41_223
*1206 FILLER_41_225
*1207 FILLER_41_237
*1208 FILLER_41_249
*1209 FILLER_41_261
*1210 FILLER_41_27
*1211 FILLER_41_273
*1212 FILLER_41_279
*1213 FILLER_41_281
*1214 FILLER_41_293
*1215 FILLER_41_3
*1216 FILLER_41_39
*1217 FILLER_41_51
*1218 FILLER_41_55
*1219 FILLER_41_57
*1220 FILLER_41_69
*1221 FILLER_41_81
*1222 FILLER_41_93
*1223 FILLER_42_109
*1224 FILLER_42_121
*1225 FILLER_42_133
*1226 FILLER_42_139
*1227 FILLER_42_141
*1228 FILLER_42_153
*1229 FILLER_42_165
*1230 FILLER_42_177
*1231 FILLER_42_18
*1232 FILLER_42_189
*1233 FILLER_42_195
*1234 FILLER_42_197
*1235 FILLER_42_209
*1236 FILLER_42_221
*1237 FILLER_42_233
*1238 FILLER_42_245
*1239 FILLER_42_251
*1240 FILLER_42_253
*1241 FILLER_42_26
*1242 FILLER_42_265
*1243 FILLER_42_277
*1244 FILLER_42_289
*1245 FILLER_42_29
*1246 FILLER_42_297
*1247 FILLER_42_41
*1248 FILLER_42_53
*1249 FILLER_42_6
*1250 FILLER_42_65
*1251 FILLER_42_77
*1252 FILLER_42_83
*1253 FILLER_42_85
*1254 FILLER_42_97
*1255 FILLER_43_105
*1256 FILLER_43_111
*1257 FILLER_43_113
*1258 FILLER_43_125
*1259 FILLER_43_137
*1260 FILLER_43_149
*1261 FILLER_43_15
*1262 FILLER_43_161
*1263 FILLER_43_167
*1264 FILLER_43_169
*1265 FILLER_43_181
*1266 FILLER_43_193
*1267 FILLER_43_205
*1268 FILLER_43_217
*1269 FILLER_43_223
*1270 FILLER_43_225
*1271 FILLER_43_237
*1272 FILLER_43_249
*1273 FILLER_43_261
*1274 FILLER_43_27
*1275 FILLER_43_273
*1276 FILLER_43_279
*1277 FILLER_43_281
*1278 FILLER_43_293
*1279 FILLER_43_3
*1280 FILLER_43_39
*1281 FILLER_43_51
*1282 FILLER_43_55
*1283 FILLER_43_57
*1284 FILLER_43_69
*1285 FILLER_43_81
*1286 FILLER_43_93
*1287 FILLER_44_109
*1288 FILLER_44_121
*1289 FILLER_44_133
*1290 FILLER_44_139
*1291 FILLER_44_141
*1292 FILLER_44_15
*1293 FILLER_44_153
*1294 FILLER_44_165
*1295 FILLER_44_177
*1296 FILLER_44_189
*1297 FILLER_44_195
*1298 FILLER_44_197
*1299 FILLER_44_209
*1300 FILLER_44_221
*1301 FILLER_44_233
*1302 FILLER_44_245
*1303 FILLER_44_251
*1304 FILLER_44_253
*1305 FILLER_44_265
*1306 FILLER_44_27
*1307 FILLER_44_277
*1308 FILLER_44_289
*1309 FILLER_44_29
*1310 FILLER_44_297
*1311 FILLER_44_3
*1312 FILLER_44_41
*1313 FILLER_44_53
*1314 FILLER_44_65
*1315 FILLER_44_77
*1316 FILLER_44_83
*1317 FILLER_44_85
*1318 FILLER_44_97
*1319 FILLER_45_105
*1320 FILLER_45_111
*1321 FILLER_45_113
*1322 FILLER_45_125
*1323 FILLER_45_137
*1324 FILLER_45_149
*1325 FILLER_45_15
*1326 FILLER_45_161
*1327 FILLER_45_167
*1328 FILLER_45_169
*1329 FILLER_45_181
*1330 FILLER_45_193
*1331 FILLER_45_205
*1332 FILLER_45_217
*1333 FILLER_45_223
*1334 FILLER_45_225
*1335 FILLER_45_237
*1336 FILLER_45_249
*1337 FILLER_45_261
*1338 FILLER_45_27
*1339 FILLER_45_273
*1340 FILLER_45_279
*1341 FILLER_45_281
*1342 FILLER_45_293
*1343 FILLER_45_3
*1344 FILLER_45_39
*1345 FILLER_45_51
*1346 FILLER_45_55
*1347 FILLER_45_57
*1348 FILLER_45_69
*1349 FILLER_45_81
*1350 FILLER_45_93
*1351 FILLER_46_109
*1352 FILLER_46_121
*1353 FILLER_46_133
*1354 FILLER_46_139
*1355 FILLER_46_141
*1356 FILLER_46_153
*1357 FILLER_46_165
*1358 FILLER_46_177
*1359 FILLER_46_18
*1360 FILLER_46_189
*1361 FILLER_46_195
*1362 FILLER_46_197
*1363 FILLER_46_209
*1364 FILLER_46_221
*1365 FILLER_46_233
*1366 FILLER_46_245
*1367 FILLER_46_251
*1368 FILLER_46_253
*1369 FILLER_46_26
*1370 FILLER_46_265
*1371 FILLER_46_277
*1372 FILLER_46_289
*1373 FILLER_46_29
*1374 FILLER_46_297
*1375 FILLER_46_41
*1376 FILLER_46_53
*1377 FILLER_46_6
*1378 FILLER_46_65
*1379 FILLER_46_77
*1380 FILLER_46_83
*1381 FILLER_46_85
*1382 FILLER_46_97
*1383 FILLER_47_105
*1384 FILLER_47_111
*1385 FILLER_47_113
*1386 FILLER_47_125
*1387 FILLER_47_137
*1388 FILLER_47_149
*1389 FILLER_47_15
*1390 FILLER_47_161
*1391 FILLER_47_167
*1392 FILLER_47_169
*1393 FILLER_47_181
*1394 FILLER_47_193
*1395 FILLER_47_205
*1396 FILLER_47_217
*1397 FILLER_47_223
*1398 FILLER_47_225
*1399 FILLER_47_237
*1400 FILLER_47_249
*1401 FILLER_47_261
*1402 FILLER_47_27
*1403 FILLER_47_273
*1404 FILLER_47_279
*1405 FILLER_47_281
*1406 FILLER_47_293
*1407 FILLER_47_3
*1408 FILLER_47_39
*1409 FILLER_47_51
*1410 FILLER_47_55
*1411 FILLER_47_57
*1412 FILLER_47_69
*1413 FILLER_47_81
*1414 FILLER_47_93
*1415 FILLER_48_109
*1416 FILLER_48_121
*1417 FILLER_48_133
*1418 FILLER_48_139
*1419 FILLER_48_141
*1420 FILLER_48_15
*1421 FILLER_48_153
*1422 FILLER_48_165
*1423 FILLER_48_177
*1424 FILLER_48_189
*1425 FILLER_48_195
*1426 FILLER_48_197
*1427 FILLER_48_209
*1428 FILLER_48_221
*1429 FILLER_48_233
*1430 FILLER_48_245
*1431 FILLER_48_251
*1432 FILLER_48_253
*1433 FILLER_48_265
*1434 FILLER_48_27
*1435 FILLER_48_277
*1436 FILLER_48_289
*1437 FILLER_48_29
*1438 FILLER_48_297
*1439 FILLER_48_3
*1440 FILLER_48_41
*1441 FILLER_48_53
*1442 FILLER_48_65
*1443 FILLER_48_77
*1444 FILLER_48_83
*1445 FILLER_48_85
*1446 FILLER_48_97
*1447 FILLER_49_105
*1448 FILLER_49_111
*1449 FILLER_49_113
*1450 FILLER_49_125
*1451 FILLER_49_137
*1452 FILLER_49_149
*1453 FILLER_49_15
*1454 FILLER_49_161
*1455 FILLER_49_167
*1456 FILLER_49_169
*1457 FILLER_49_181
*1458 FILLER_49_193
*1459 FILLER_49_205
*1460 FILLER_49_217
*1461 FILLER_49_223
*1462 FILLER_49_225
*1463 FILLER_49_237
*1464 FILLER_49_249
*1465 FILLER_49_261
*1466 FILLER_49_27
*1467 FILLER_49_273
*1468 FILLER_49_279
*1469 FILLER_49_281
*1470 FILLER_49_293
*1471 FILLER_49_3
*1472 FILLER_49_39
*1473 FILLER_49_51
*1474 FILLER_49_55
*1475 FILLER_49_57
*1476 FILLER_49_69
*1477 FILLER_49_81
*1478 FILLER_49_93
*1479 FILLER_4_105
*1480 FILLER_4_117
*1481 FILLER_4_129
*1482 FILLER_4_137
*1483 FILLER_4_141
*1484 FILLER_4_153
*1485 FILLER_4_165
*1486 FILLER_4_177
*1487 FILLER_4_189
*1488 FILLER_4_195
*1489 FILLER_4_197
*1490 FILLER_4_209
*1491 FILLER_4_221
*1492 FILLER_4_233
*1493 FILLER_4_24
*1494 FILLER_4_245
*1495 FILLER_4_251
*1496 FILLER_4_253
*1497 FILLER_4_265
*1498 FILLER_4_277
*1499 FILLER_4_289
*1500 FILLER_4_29
*1501 FILLER_4_297
*1502 FILLER_4_3
*1503 FILLER_4_49
*1504 FILLER_4_57
*1505 FILLER_4_7
*1506 FILLER_4_75
*1507 FILLER_4_83
*1508 FILLER_4_93
*1509 FILLER_50_109
*1510 FILLER_50_121
*1511 FILLER_50_133
*1512 FILLER_50_139
*1513 FILLER_50_141
*1514 FILLER_50_153
*1515 FILLER_50_165
*1516 FILLER_50_177
*1517 FILLER_50_18
*1518 FILLER_50_189
*1519 FILLER_50_195
*1520 FILLER_50_197
*1521 FILLER_50_209
*1522 FILLER_50_221
*1523 FILLER_50_233
*1524 FILLER_50_245
*1525 FILLER_50_251
*1526 FILLER_50_253
*1527 FILLER_50_26
*1528 FILLER_50_265
*1529 FILLER_50_277
*1530 FILLER_50_289
*1531 FILLER_50_29
*1532 FILLER_50_297
*1533 FILLER_50_41
*1534 FILLER_50_53
*1535 FILLER_50_6
*1536 FILLER_50_65
*1537 FILLER_50_77
*1538 FILLER_50_83
*1539 FILLER_50_85
*1540 FILLER_50_97
*1541 FILLER_51_105
*1542 FILLER_51_111
*1543 FILLER_51_113
*1544 FILLER_51_125
*1545 FILLER_51_137
*1546 FILLER_51_149
*1547 FILLER_51_15
*1548 FILLER_51_161
*1549 FILLER_51_167
*1550 FILLER_51_169
*1551 FILLER_51_181
*1552 FILLER_51_193
*1553 FILLER_51_205
*1554 FILLER_51_217
*1555 FILLER_51_223
*1556 FILLER_51_225
*1557 FILLER_51_237
*1558 FILLER_51_249
*1559 FILLER_51_261
*1560 FILLER_51_27
*1561 FILLER_51_273
*1562 FILLER_51_279
*1563 FILLER_51_281
*1564 FILLER_51_293
*1565 FILLER_51_3
*1566 FILLER_51_39
*1567 FILLER_51_51
*1568 FILLER_51_55
*1569 FILLER_51_57
*1570 FILLER_51_69
*1571 FILLER_51_81
*1572 FILLER_51_93
*1573 FILLER_52_109
*1574 FILLER_52_121
*1575 FILLER_52_133
*1576 FILLER_52_139
*1577 FILLER_52_141
*1578 FILLER_52_15
*1579 FILLER_52_153
*1580 FILLER_52_165
*1581 FILLER_52_177
*1582 FILLER_52_189
*1583 FILLER_52_195
*1584 FILLER_52_197
*1585 FILLER_52_209
*1586 FILLER_52_221
*1587 FILLER_52_233
*1588 FILLER_52_245
*1589 FILLER_52_251
*1590 FILLER_52_253
*1591 FILLER_52_265
*1592 FILLER_52_27
*1593 FILLER_52_277
*1594 FILLER_52_289
*1595 FILLER_52_29
*1596 FILLER_52_297