*SPEF "ieee 1481-1999"
*DESIGN "user_module_347787021138264660"
*DATE "11:11:11 Fri 11 11, 1111"
*VENDOR "OpenRCX"
*PROGRAM "Parallel Extraction"
*VERSION "1.0"
*DESIGN_FLOW "NAME_SCOPE LOCAL" "PIN_CAP NONE"
*DIVIDER /
*DELIMITER :
*BUS_DELIMITER []
*T_UNIT 1 NS
*C_UNIT 1 PF
*R_UNIT 1 OHM
*L_UNIT 1 HENRY

*NAME_MAP
*1 io_in[0]
*2 io_in[1]
*3 io_in[2]
*4 io_in[3]
*5 io_in[4]
*6 io_in[5]
*7 io_in[6]
*8 io_in[7]
*9 io_out[0]
*10 io_out[1]
*11 io_out[2]
*12 io_out[3]
*13 io_out[4]
*14 io_out[5]
*15 io_out[6]
*16 net8
*19 _000_
*20 _001_
*21 _002_
*22 _003_
*23 _004_
*24 _005_
*25 _006_
*26 _007_
*27 _008_
*28 _009_
*29 _010_
*30 _011_
*31 _012_
*32 _013_
*33 _014_
*34 _015_
*35 _016_
*36 _017_
*37 _018_
*38 _019_
*39 _020_
*40 _021_
*41 _022_
*42 _023_
*43 _024_
*44 _025_
*45 _026_
*46 _027_
*47 _028_
*48 _029_
*49 _030_
*50 _031_
*51 _032_
*52 _033_
*53 _034_
*54 _035_
*55 _036_
*56 _037_
*57 _038_
*58 _039_
*59 _040_
*60 _041_
*61 _042_
*62 clknet_0_flipflop2\.clk
*63 clknet_0_io_in[0]
*64 clknet_1_0__leaf_flipflop2\.clk
*65 clknet_1_0__leaf_io_in[0]
*66 clknet_1_1__leaf_flipflop2\.clk
*67 clknet_1_1__leaf_io_in[0]
*68 flipflop10\.d
*69 flipflop10\.q
*70 flipflop11\.d
*71 flipflop11\.q
*72 flipflop12\.d
*73 flipflop12\.q
*74 flipflop13\.d
*75 flipflop13\.q
*76 flipflop14\.d
*77 flipflop14\.q
*78 flipflop15\.d
*79 flipflop15\.q
*80 flipflop16\.d
*81 flipflop16\.q
*82 flipflop17\.d
*83 flipflop17\.q
*84 flipflop18\.d
*85 flipflop18\.q
*86 flipflop19\.d
*87 flipflop19\.q
*88 flipflop2\.clk
*89 flipflop2\.q
*90 flipflop20\.d
*91 flipflop20\.q
*92 flipflop3\.q
*93 flipflop4\.q
*94 flipflop5\.q
*95 flipflop6\.q
*96 flipflop7\.q
*97 flipflop9\.d
*98 flipflop9\.q
*99 gate35\.out
*100 gate49\.out
*101 gate54\.out
*102 gate56\.out
*103 gate65\.out
*104 gate71\.out
*105 gate76\.out
*106 net1
*107 net2
*108 net3
*109 net4
*110 net5
*111 net6
*112 net7
*113 FILLER_0_109
*114 FILLER_0_113
*115 FILLER_0_125
*116 FILLER_0_137
*117 FILLER_0_141
*118 FILLER_0_153
*119 FILLER_0_165
*120 FILLER_0_169
*121 FILLER_0_181
*122 FILLER_0_193
*123 FILLER_0_197
*124 FILLER_0_209
*125 FILLER_0_221
*126 FILLER_0_225
*127 FILLER_0_237
*128 FILLER_0_24
*129 FILLER_0_249
*130 FILLER_0_253
*131 FILLER_0_265
*132 FILLER_0_277
*133 FILLER_0_281
*134 FILLER_0_29
*135 FILLER_0_293
*136 FILLER_0_3
*137 FILLER_0_35
*138 FILLER_0_52
*139 FILLER_0_7
*140 FILLER_0_73
*141 FILLER_0_81
*142 FILLER_0_85
*143 FILLER_0_97
*144 FILLER_10_109
*145 FILLER_10_121
*146 FILLER_10_133
*147 FILLER_10_139
*148 FILLER_10_141
*149 FILLER_10_15
*150 FILLER_10_153
*151 FILLER_10_165
*152 FILLER_10_177
*153 FILLER_10_189
*154 FILLER_10_195
*155 FILLER_10_197
*156 FILLER_10_209
*157 FILLER_10_221
*158 FILLER_10_233
*159 FILLER_10_24
*160 FILLER_10_245
*161 FILLER_10_251
*162 FILLER_10_253
*163 FILLER_10_265
*164 FILLER_10_277
*165 FILLER_10_289
*166 FILLER_10_29
*167 FILLER_10_297
*168 FILLER_10_3
*169 FILLER_10_37
*170 FILLER_10_58
*171 FILLER_10_78
*172 FILLER_10_85
*173 FILLER_10_97
*174 FILLER_11_105
*175 FILLER_11_111
*176 FILLER_11_113
*177 FILLER_11_125
*178 FILLER_11_137
*179 FILLER_11_149
*180 FILLER_11_15
*181 FILLER_11_161
*182 FILLER_11_167
*183 FILLER_11_169
*184 FILLER_11_181
*185 FILLER_11_193
*186 FILLER_11_205
*187 FILLER_11_217
*188 FILLER_11_223
*189 FILLER_11_225
*190 FILLER_11_237
*191 FILLER_11_249
*192 FILLER_11_261
*193 FILLER_11_273
*194 FILLER_11_279
*195 FILLER_11_281
*196 FILLER_11_293
*197 FILLER_11_3
*198 FILLER_11_36
*199 FILLER_11_48
*200 FILLER_11_57
*201 FILLER_11_69
*202 FILLER_11_81
*203 FILLER_11_93
*204 FILLER_12_109
*205 FILLER_12_121
*206 FILLER_12_133
*207 FILLER_12_139
*208 FILLER_12_141
*209 FILLER_12_153
*210 FILLER_12_165
*211 FILLER_12_17
*212 FILLER_12_177
*213 FILLER_12_189
*214 FILLER_12_195
*215 FILLER_12_197
*216 FILLER_12_209
*217 FILLER_12_221
*218 FILLER_12_233
*219 FILLER_12_24
*220 FILLER_12_245
*221 FILLER_12_251
*222 FILLER_12_253
*223 FILLER_12_265
*224 FILLER_12_277
*225 FILLER_12_289
*226 FILLER_12_297
*227 FILLER_12_46
*228 FILLER_12_58
*229 FILLER_12_6
*230 FILLER_12_70
*231 FILLER_12_82
*232 FILLER_12_85
*233 FILLER_12_97
*234 FILLER_13_105
*235 FILLER_13_111
*236 FILLER_13_113
*237 FILLER_13_125
*238 FILLER_13_137
*239 FILLER_13_149
*240 FILLER_13_161
*241 FILLER_13_167
*242 FILLER_13_169
*243 FILLER_13_181
*244 FILLER_13_193
*245 FILLER_13_20
*246 FILLER_13_205
*247 FILLER_13_217
*248 FILLER_13_223
*249 FILLER_13_225
*250 FILLER_13_237
*251 FILLER_13_249
*252 FILLER_13_261
*253 FILLER_13_273
*254 FILLER_13_279
*255 FILLER_13_281
*256 FILLER_13_293
*257 FILLER_13_3
*258 FILLER_13_32
*259 FILLER_13_44
*260 FILLER_13_57
*261 FILLER_13_69
*262 FILLER_13_81
*263 FILLER_13_93
*264 FILLER_14_109
*265 FILLER_14_121
*266 FILLER_14_133
*267 FILLER_14_139
*268 FILLER_14_141
*269 FILLER_14_15
*270 FILLER_14_153
*271 FILLER_14_165
*272 FILLER_14_177
*273 FILLER_14_189
*274 FILLER_14_195
*275 FILLER_14_197
*276 FILLER_14_209
*277 FILLER_14_221
*278 FILLER_14_233
*279 FILLER_14_245
*280 FILLER_14_251
*281 FILLER_14_253
*282 FILLER_14_265
*283 FILLER_14_27
*284 FILLER_14_277
*285 FILLER_14_289
*286 FILLER_14_29
*287 FILLER_14_297
*288 FILLER_14_3
*289 FILLER_14_41
*290 FILLER_14_53
*291 FILLER_14_65
*292 FILLER_14_77
*293 FILLER_14_83
*294 FILLER_14_85
*295 FILLER_14_97
*296 FILLER_15_105
*297 FILLER_15_111
*298 FILLER_15_113
*299 FILLER_15_125
*300 FILLER_15_137
*301 FILLER_15_149
*302 FILLER_15_161
*303 FILLER_15_167
*304 FILLER_15_169
*305 FILLER_15_17
*306 FILLER_15_181
*307 FILLER_15_193
*308 FILLER_15_205
*309 FILLER_15_217
*310 FILLER_15_223
*311 FILLER_15_225
*312 FILLER_15_237
*313 FILLER_15_249
*314 FILLER_15_261
*315 FILLER_15_273
*316 FILLER_15_279
*317 FILLER_15_281
*318 FILLER_15_29
*319 FILLER_15_293
*320 FILLER_15_3
*321 FILLER_15_36
*322 FILLER_15_48
*323 FILLER_15_57
*324 FILLER_15_69
*325 FILLER_15_81
*326 FILLER_15_9
*327 FILLER_15_93
*328 FILLER_16_104
*329 FILLER_16_116
*330 FILLER_16_128
*331 FILLER_16_141
*332 FILLER_16_153
*333 FILLER_16_165
*334 FILLER_16_177
*335 FILLER_16_18
*336 FILLER_16_189
*337 FILLER_16_195
*338 FILLER_16_197
*339 FILLER_16_209
*340 FILLER_16_221
*341 FILLER_16_233
*342 FILLER_16_245
*343 FILLER_16_251
*344 FILLER_16_253
*345 FILLER_16_26
*346 FILLER_16_265
*347 FILLER_16_277
*348 FILLER_16_289
*349 FILLER_16_29
*350 FILLER_16_297
*351 FILLER_16_41
*352 FILLER_16_53
*353 FILLER_16_6
*354 FILLER_16_65
*355 FILLER_16_77
*356 FILLER_16_83
*357 FILLER_16_92
*358 FILLER_17_105
*359 FILLER_17_111
*360 FILLER_17_113
*361 FILLER_17_125
*362 FILLER_17_137
*363 FILLER_17_149
*364 FILLER_17_15
*365 FILLER_17_161
*366 FILLER_17_167
*367 FILLER_17_169
*368 FILLER_17_181
*369 FILLER_17_193
*370 FILLER_17_205
*371 FILLER_17_217
*372 FILLER_17_223
*373 FILLER_17_225
*374 FILLER_17_237
*375 FILLER_17_249
*376 FILLER_17_25
*377 FILLER_17_261
*378 FILLER_17_273
*379 FILLER_17_279
*380 FILLER_17_281
*381 FILLER_17_293
*382 FILLER_17_3
*383 FILLER_17_37
*384 FILLER_17_49
*385 FILLER_17_55
*386 FILLER_17_57
*387 FILLER_17_69
*388 FILLER_17_81
*389 FILLER_17_93
*390 FILLER_18_10
*391 FILLER_18_109
*392 FILLER_18_121
*393 FILLER_18_133
*394 FILLER_18_139
*395 FILLER_18_141
*396 FILLER_18_153
*397 FILLER_18_165
*398 FILLER_18_177
*399 FILLER_18_189
*400 FILLER_18_195
*401 FILLER_18_197
*402 FILLER_18_209
*403 FILLER_18_22
*404 FILLER_18_221
*405 FILLER_18_233
*406 FILLER_18_245
*407 FILLER_18_251
*408 FILLER_18_253
*409 FILLER_18_265
*410 FILLER_18_277
*411 FILLER_18_289
*412 FILLER_18_29
*413 FILLER_18_297
*414 FILLER_18_3
*415 FILLER_18_44
*416 FILLER_18_56
*417 FILLER_18_68
*418 FILLER_18_80
*419 FILLER_18_85
*420 FILLER_18_97
*421 FILLER_19_109
*422 FILLER_19_11
*423 FILLER_19_118
*424 FILLER_19_130
*425 FILLER_19_142
*426 FILLER_19_154
*427 FILLER_19_166
*428 FILLER_19_169
*429 FILLER_19_181
*430 FILLER_19_193
*431 FILLER_19_205
*432 FILLER_19_217
*433 FILLER_19_22
*434 FILLER_19_223
*435 FILLER_19_225
*436 FILLER_19_237
*437 FILLER_19_249
*438 FILLER_19_261
*439 FILLER_19_273
*440 FILLER_19_279
*441 FILLER_19_281
*442 FILLER_19_293
*443 FILLER_19_3
*444 FILLER_19_35
*445 FILLER_19_47
*446 FILLER_19_55
*447 FILLER_19_57
*448 FILLER_19_69
*449 FILLER_19_77
*450 FILLER_19_85
*451 FILLER_19_97
*452 FILLER_1_109
*453 FILLER_1_113
*454 FILLER_1_125
*455 FILLER_1_137
*456 FILLER_1_149
*457 FILLER_1_15
*458 FILLER_1_161
*459 FILLER_1_167
*460 FILLER_1_169
*461 FILLER_1_181
*462 FILLER_1_193
*463 FILLER_1_205
*464 FILLER_1_217
*465 FILLER_1_223
*466 FILLER_1_225
*467 FILLER_1_237
*468 FILLER_1_249
*469 FILLER_1_261
*470 FILLER_1_273
*471 FILLER_1_279
*472 FILLER_1_281
*473 FILLER_1_293
*474 FILLER_1_3
*475 FILLER_1_36
*476 FILLER_1_48
*477 FILLER_1_73
*478 FILLER_1_85
*479 FILLER_1_97
*480 FILLER_20_109
*481 FILLER_20_121
*482 FILLER_20_133
*483 FILLER_20_139
*484 FILLER_20_141
*485 FILLER_20_153
*486 FILLER_20_16
*487 FILLER_20_165
*488 FILLER_20_177
*489 FILLER_20_189
*490 FILLER_20_195
*491 FILLER_20_197
*492 FILLER_20_209
*493 FILLER_20_221
*494 FILLER_20_233
*495 FILLER_20_245
*496 FILLER_20_251
*497 FILLER_20_253
*498 FILLER_20_265
*499 FILLER_20_277
*500 FILLER_20_289
*501 FILLER_20_29
*502 FILLER_20_297
*503 FILLER_20_3
*504 FILLER_20_41
*505 FILLER_20_49
*506 FILLER_20_61
*507 FILLER_20_73
*508 FILLER_20_81
*509 FILLER_20_85
*510 FILLER_20_9
*511 FILLER_20_97
*512 FILLER_21_11
*513 FILLER_21_110
*514 FILLER_21_113
*515 FILLER_21_125
*516 FILLER_21_137
*517 FILLER_21_149
*518 FILLER_21_161
*519 FILLER_21_167
*520 FILLER_21_169
*521 FILLER_21_181
*522 FILLER_21_193
*523 FILLER_21_205
*524 FILLER_21_217
*525 FILLER_21_223
*526 FILLER_21_225
*527 FILLER_21_23
*528 FILLER_21_237
*529 FILLER_21_249
*530 FILLER_21_261
*531 FILLER_21_273
*532 FILLER_21_279
*533 FILLER_21_281
*534 FILLER_21_293
*535 FILLER_21_3
*536 FILLER_21_31
*537 FILLER_21_39
*538 FILLER_21_51
*539 FILLER_21_55
*540 FILLER_21_62
*541 FILLER_21_7
*542 FILLER_21_74
*543 FILLER_21_86
*544 FILLER_21_98
*545 FILLER_22_104
*546 FILLER_22_116
*547 FILLER_22_128
*548 FILLER_22_141
*549 FILLER_22_15
*550 FILLER_22_153
*551 FILLER_22_165
*552 FILLER_22_177
*553 FILLER_22_189
*554 FILLER_22_195
*555 FILLER_22_197
*556 FILLER_22_209
*557 FILLER_22_221
*558 FILLER_22_233
*559 FILLER_22_245
*560 FILLER_22_251
*561 FILLER_22_253
*562 FILLER_22_265
*563 FILLER_22_27
*564 FILLER_22_277
*565 FILLER_22_289
*566 FILLER_22_29
*567 FILLER_22_297
*568 FILLER_22_3
*569 FILLER_22_41
*570 FILLER_22_53
*571 FILLER_22_65
*572 FILLER_22_77
*573 FILLER_22_83
*574 FILLER_22_92
*575 FILLER_23_105
*576 FILLER_23_111
*577 FILLER_23_113
*578 FILLER_23_125
*579 FILLER_23_137
*580 FILLER_23_14
*581 FILLER_23_149
*582 FILLER_23_161
*583 FILLER_23_167
*584 FILLER_23_169
*585 FILLER_23_181
*586 FILLER_23_193
*587 FILLER_23_205
*588 FILLER_23_217
*589 FILLER_23_223
*590 FILLER_23_225
*591 FILLER_23_237
*592 FILLER_23_249
*593 FILLER_23_25
*594 FILLER_23_261
*595 FILLER_23_273
*596 FILLER_23_279
*597 FILLER_23_281
*598 FILLER_23_293
*599 FILLER_23_3
*600 FILLER_23_34
*601 FILLER_23_46
*602 FILLER_23_54
*603 FILLER_23_57
*604 FILLER_23_69
*605 FILLER_23_81
*606 FILLER_23_93
*607 FILLER_24_109
*608 FILLER_24_121
*609 FILLER_24_133
*610 FILLER_24_139
*611 FILLER_24_141
*612 FILLER_24_153
*613 FILLER_24_165
*614 FILLER_24_177
*615 FILLER_24_18
*616 FILLER_24_189
*617 FILLER_24_195
*618 FILLER_24_197
*619 FILLER_24_209
*620 FILLER_24_221
*621 FILLER_24_233
*622 FILLER_24_245
*623 FILLER_24_251
*624 FILLER_24_253
*625 FILLER_24_26
*626 FILLER_24_265
*627 FILLER_24_277
*628 FILLER_24_289
*629 FILLER_24_29
*630 FILLER_24_297
*631 FILLER_24_41
*632 FILLER_24_53
*633 FILLER_24_6
*634 FILLER_24_65
*635 FILLER_24_77
*636 FILLER_24_83
*637 FILLER_24_85
*638 FILLER_24_97
*639 FILLER_25_106
*640 FILLER_25_113
*641 FILLER_25_125
*642 FILLER_25_137
*643 FILLER_25_14
*644 FILLER_25_149
*645 FILLER_25_161
*646 FILLER_25_167
*647 FILLER_25_169
*648 FILLER_25_181
*649 FILLER_25_193
*650 FILLER_25_205
*651 FILLER_25_217
*652 FILLER_25_22
*653 FILLER_25_223
*654 FILLER_25_225
*655 FILLER_25_237
*656 FILLER_25_249
*657 FILLER_25_261
*658 FILLER_25_273
*659 FILLER_25_279
*660 FILLER_25_28
*661 FILLER_25_281
*662 FILLER_25_293
*663 FILLER_25_3
*664 FILLER_25_40
*665 FILLER_25_52
*666 FILLER_25_62
*667 FILLER_25_7
*668 FILLER_25_74
*669 FILLER_25_82
*670 FILLER_25_94
*671 FILLER_26_109
*672 FILLER_26_121
*673 FILLER_26_133
*674 FILLER_26_139
*675 FILLER_26_141
*676 FILLER_26_153
*677 FILLER_26_16
*678 FILLER_26_165
*679 FILLER_26_177
*680 FILLER_26_189
*681 FILLER_26_195
*682 FILLER_26_197
*683 FILLER_26_209
*684 FILLER_26_221
*685 FILLER_26_23
*686 FILLER_26_233
*687 FILLER_26_245
*688 FILLER_26_251
*689 FILLER_26_253
*690 FILLER_26_265
*691 FILLER_26_27
*692 FILLER_26_277
*693 FILLER_26_289
*694 FILLER_26_297
*695 FILLER_26_3
*696 FILLER_26_37
*697 FILLER_26_49
*698 FILLER_26_61
*699 FILLER_26_73
*700 FILLER_26_81
*701 FILLER_26_85
*702 FILLER_26_97
*703 FILLER_27_107
*704 FILLER_27_11
*705 FILLER_27_111
*706 FILLER_27_113
*707 FILLER_27_125
*708 FILLER_27_137
*709 FILLER_27_149
*710 FILLER_27_161
*711 FILLER_27_167
*712 FILLER_27_169
*713 FILLER_27_18
*714 FILLER_27_181
*715 FILLER_27_193
*716 FILLER_27_205
*717 FILLER_27_217
*718 FILLER_27_223
*719 FILLER_27_225
*720 FILLER_27_237
*721 FILLER_27_249
*722 FILLER_27_261
*723 FILLER_27_27
*724 FILLER_27_273
*725 FILLER_27_279
*726 FILLER_27_281
*727 FILLER_27_293
*728 FILLER_27_3
*729 FILLER_27_35
*730 FILLER_27_47
*731 FILLER_27_55
*732 FILLER_27_57
*733 FILLER_27_63
*734 FILLER_27_71
*735 FILLER_27_83
*736 FILLER_27_95
*737 FILLER_28_109
*738 FILLER_28_121
*739 FILLER_28_133
*740 FILLER_28_139
*741 FILLER_28_141
*742 FILLER_28_153
*743 FILLER_28_165
*744 FILLER_28_177
*745 FILLER_28_189
*746 FILLER_28_19
*747 FILLER_28_195
*748 FILLER_28_197
*749 FILLER_28_209
*750 FILLER_28_221
*751 FILLER_28_233
*752 FILLER_28_245
*753 FILLER_28_251
*754 FILLER_28_253
*755 FILLER_28_265
*756 FILLER_28_27
*757 FILLER_28_277
*758 FILLER_28_289
*759 FILLER_28_29
*760 FILLER_28_297
*761 FILLER_28_3
*762 FILLER_28_37
*763 FILLER_28_42
*764 FILLER_28_48
*765 FILLER_28_54
*766 FILLER_28_66
*767 FILLER_28_7
*768 FILLER_28_78
*769 FILLER_28_85
*770 FILLER_28_97
*771 FILLER_29_105
*772 FILLER_29_111
*773 FILLER_29_113
*774 FILLER_29_125
*775 FILLER_29_137
*776 FILLER_29_149
*777 FILLER_29_15
*778 FILLER_29_161
*779 FILLER_29_167
*780 FILLER_29_169
*781 FILLER_29_181
*782 FILLER_29_193
*783 FILLER_29_205
*784 FILLER_29_217
*785 FILLER_29_223
*786 FILLER_29_225
*787 FILLER_29_23
*788 FILLER_29_237
*789 FILLER_29_249
*790 FILLER_29_261
*791 FILLER_29_273
*792 FILLER_29_279
*793 FILLER_29_281
*794 FILLER_29_29
*795 FILLER_29_293
*796 FILLER_29_3
*797 FILLER_29_41
*798 FILLER_29_53
*799 FILLER_29_57
*800 FILLER_29_69
*801 FILLER_29_81
*802 FILLER_29_93
*803 FILLER_2_109
*804 FILLER_2_121
*805 FILLER_2_133
*806 FILLER_2_139
*807 FILLER_2_141
*808 FILLER_2_153
*809 FILLER_2_165
*810 FILLER_2_177
*811 FILLER_2_189
*812 FILLER_2_195
*813 FILLER_2_197
*814 FILLER_2_209
*815 FILLER_2_221
*816 FILLER_2_233
*817 FILLER_2_24
*818 FILLER_2_245
*819 FILLER_2_251
*820 FILLER_2_253
*821 FILLER_2_265
*822 FILLER_2_277
*823 FILLER_2_289
*824 FILLER_2_297
*825 FILLER_2_3
*826 FILLER_2_45
*827 FILLER_2_65
*828 FILLER_2_7
*829 FILLER_2_77
*830 FILLER_2_83
*831 FILLER_2_85
*832 FILLER_2_97
*833 FILLER_30_109
*834 FILLER_30_11
*835 FILLER_30_121
*836 FILLER_30_133
*837 FILLER_30_139
*838 FILLER_30_141
*839 FILLER_30_153
*840 FILLER_30_165
*841 FILLER_30_177
*842 FILLER_30_189
*843 FILLER_30_195
*844 FILLER_30_197
*845 FILLER_30_209
*846 FILLER_30_221
*847 FILLER_30_23
*848 FILLER_30_233
*849 FILLER_30_245
*850 FILLER_30_251
*851 FILLER_30_253
*852 FILLER_30_265
*853 FILLER_30_27
*854 FILLER_30_277
*855 FILLER_30_289
*856 FILLER_30_29
*857 FILLER_30_297
*858 FILLER_30_3
*859 FILLER_30_33
*860 FILLER_30_37
*861 FILLER_30_49
*862 FILLER_30_61
*863 FILLER_30_73
*864 FILLER_30_81
*865 FILLER_30_85
*866 FILLER_30_97
*867 FILLER_31_105
*868 FILLER_31_11
*869 FILLER_31_111
*870 FILLER_31_113
*871 FILLER_31_125
*872 FILLER_31_137
*873 FILLER_31_149
*874 FILLER_31_161
*875 FILLER_31_167
*876 FILLER_31_169
*877 FILLER_31_18
*878 FILLER_31_181
*879 FILLER_31_193
*880 FILLER_31_205
*881 FILLER_31_217
*882 FILLER_31_223
*883 FILLER_31_225
*884 FILLER_31_237
*885 FILLER_31_249
*886 FILLER_31_261
*887 FILLER_31_27
*888 FILLER_31_273
*889 FILLER_31_279
*890 FILLER_31_281
*891 FILLER_31_293
*892 FILLER_31_3
*893 FILLER_31_39
*894 FILLER_31_51
*895 FILLER_31_55
*896 FILLER_31_57
*897 FILLER_31_69
*898 FILLER_31_81
*899 FILLER_31_93
*900 FILLER_32_109
*901 FILLER_32_121
*902 FILLER_32_133
*903 FILLER_32_139
*904 FILLER_32_141
*905 FILLER_32_15
*906 FILLER_32_153
*907 FILLER_32_165
*908 FILLER_32_177
*909 FILLER_32_189
*910 FILLER_32_195
*911 FILLER_32_197
*912 FILLER_32_209
*913 FILLER_32_221
*914 FILLER_32_233
*915 FILLER_32_245
*916 FILLER_32_251
*917 FILLER_32_253
*918 FILLER_32_265
*919 FILLER_32_27
*920 FILLER_32_277
*921 FILLER_32_289
*922 FILLER_32_29
*923 FILLER_32_297
*924 FILLER_32_3
*925 FILLER_32_36
*926 FILLER_32_47
*927 FILLER_32_59
*928 FILLER_32_71
*929 FILLER_32_83
*930 FILLER_32_85
*931 FILLER_32_97
*932 FILLER_33_105
*933 FILLER_33_11
*934 FILLER_33_111
*935 FILLER_33_113
*936 FILLER_33_125
*937 FILLER_33_137
*938 FILLER_33_149
*939 FILLER_33_161
*940 FILLER_33_167
*941 FILLER_33_169
*942 FILLER_33_181
*943 FILLER_33_19
*944 FILLER_33_193
*945 FILLER_33_205
*946 FILLER_33_217
*947 FILLER_33_223
*948 FILLER_33_225
*949 FILLER_33_237
*950 FILLER_33_249
*951 FILLER_33_261
*952 FILLER_33_273
*953 FILLER_33_279
*954 FILLER_33_281
*955 FILLER_33_29
*956 FILLER_33_293
*957 FILLER_33_3
*958 FILLER_33_36
*959 FILLER_33_48
*960 FILLER_33_57
*961 FILLER_33_69
*962 FILLER_33_81
*963 FILLER_33_93
*964 FILLER_34_109
*965 FILLER_34_121
*966 FILLER_34_133
*967 FILLER_34_139
*968 FILLER_34_141
*969 FILLER_34_153
*970 FILLER_34_16
*971 FILLER_34_165
*972 FILLER_34_177
*973 FILLER_34_189
*974 FILLER_34_195
*975 FILLER_34_197
*976 FILLER_34_209
*977 FILLER_34_221
*978 FILLER_34_233
*979 FILLER_34_245
*980 FILLER_34_251
*981 FILLER_34_253
*982 FILLER_34_265
*983 FILLER_34_277
*984 FILLER_34_289
*985 FILLER_34_29
*986 FILLER_34_297
*987 FILLER_34_41
*988 FILLER_34_53
*989 FILLER_34_62
*990 FILLER_34_74
*991 FILLER_34_82
*992 FILLER_34_85
*993 FILLER_34_97
*994 FILLER_35_100
*995 FILLER_35_11
*996 FILLER_35_113
*997 FILLER_35_125
*998 FILLER_35_137
*999 FILLER_35_149
*1000 FILLER_35_161
*1001 FILLER_35_167
*1002 FILLER_35_169
*1003 FILLER_35_181
*1004 FILLER_35_19
*1005 FILLER_35_193
*1006 FILLER_35_205
*1007 FILLER_35_217
*1008 FILLER_35_223
*1009 FILLER_35_225
*1010 FILLER_35_237
*1011 FILLER_35_249
*1012 FILLER_35_261
*1013 FILLER_35_273
*1014 FILLER_35_279
*1015 FILLER_35_281
*1016 FILLER_35_293
*1017 FILLER_35_3
*1018 FILLER_35_31
*1019 FILLER_35_43
*1020 FILLER_35_55
*1021 FILLER_35_57
*1022 FILLER_35_64
*1023 FILLER_35_76
*1024 FILLER_35_88
*1025 FILLER_36_109
*1026 FILLER_36_121
*1027 FILLER_36_133
*1028 FILLER_36_139
*1029 FILLER_36_141
*1030 FILLER_36_153
*1031 FILLER_36_165
*1032 FILLER_36_177
*1033 FILLER_36_189
*1034 FILLER_36_195
*1035 FILLER_36_197
*1036 FILLER_36_209
*1037 FILLER_36_21
*1038 FILLER_36_221
*1039 FILLER_36_233
*1040 FILLER_36_245
*1041 FILLER_36_251
*1042 FILLER_36_253
*1043 FILLER_36_265
*1044 FILLER_36_27
*1045 FILLER_36_277
*1046 FILLER_36_289
*1047 FILLER_36_29
*1048 FILLER_36_297
*1049 FILLER_36_3
*1050 FILLER_36_41
*1051 FILLER_36_53
*1052 FILLER_36_65
*1053 FILLER_36_77
*1054 FILLER_36_83
*1055 FILLER_36_85
*1056 FILLER_36_9
*1057 FILLER_36_97
*1058 FILLER_37_105
*1059 FILLER_37_111
*1060 FILLER_37_113
*1061 FILLER_37_125
*1062 FILLER_37_137
*1063 FILLER_37_149
*1064 FILLER_37_15
*1065 FILLER_37_161
*1066 FILLER_37_167
*1067 FILLER_37_169
*1068 FILLER_37_181
*1069 FILLER_37_193
*1070 FILLER_37_205
*1071 FILLER_37_217
*1072 FILLER_37_223
*1073 FILLER_37_225
*1074 FILLER_37_237
*1075 FILLER_37_249
*1076 FILLER_37_261
*1077 FILLER_37_27
*1078 FILLER_37_273
*1079 FILLER_37_279
*1080 FILLER_37_281
*1081 FILLER_37_293
*1082 FILLER_37_3
*1083 FILLER_37_39
*1084 FILLER_37_51
*1085 FILLER_37_55
*1086 FILLER_37_57
*1087 FILLER_37_69
*1088 FILLER_37_81
*1089 FILLER_37_93
*1090 FILLER_38_10
*1091 FILLER_38_109
*1092 FILLER_38_121
*1093 FILLER_38_133
*1094 FILLER_38_139
*1095 FILLER_38_141
*1096 FILLER_38_153
*1097 FILLER_38_165
*1098 FILLER_38_177
*1099 FILLER_38_189
*1100 FILLER_38_195
*1101 FILLER_38_197
*1102 FILLER_38_209
*1103 FILLER_38_22
*1104 FILLER_38_221
*1105 FILLER_38_233
*1106 FILLER_38_245
*1107 FILLER_38_251
*1108 FILLER_38_253
*1109 FILLER_38_265
*1110 FILLER_38_277
*1111 FILLER_38_289
*1112 FILLER_38_29
*1113 FILLER_38_297
*1114 FILLER_38_3
*1115 FILLER_38_41
*1116 FILLER_38_53
*1117 FILLER_38_65
*1118 FILLER_38_72
*1119 FILLER_38_85
*1120 FILLER_38_97
*1121 FILLER_39_105
*1122 FILLER_39_111
*1123 FILLER_39_113
*1124 FILLER_39_12
*1125 FILLER_39_125
*1126 FILLER_39_137
*1127 FILLER_39_149
*1128 FILLER_39_161
*1129 FILLER_39_167
*1130 FILLER_39_169
*1131 FILLER_39_181
*1132 FILLER_39_193
*1133 FILLER_39_205
*1134 FILLER_39_217
*1135 FILLER_39_223
*1136 FILLER_39_225
*1137 FILLER_39_237
*1138 FILLER_39_24
*1139 FILLER_39_249
*1140 FILLER_39_261
*1141 FILLER_39_273
*1142 FILLER_39_279
*1143 FILLER_39_281
*1144 FILLER_39_293
*1145 FILLER_39_3
*1146 FILLER_39_36
*1147 FILLER_39_48
*1148 FILLER_39_57
*1149 FILLER_39_69
*1150 FILLER_39_81
*1151 FILLER_39_93
*1152 FILLER_3_105
*1153 FILLER_3_111
*1154 FILLER_3_113
*1155 FILLER_3_125
*1156 FILLER_3_137
*1157 FILLER_3_149
*1158 FILLER_3_15
*1159 FILLER_3_161
*1160 FILLER_3_167
*1161 FILLER_3_169
*1162 FILLER_3_181
*1163 FILLER_3_193
*1164 FILLER_3_205
*1165 FILLER_3_217
*1166 FILLER_3_223
*1167 FILLER_3_225
*1168 FILLER_3_237
*1169 FILLER_3_249
*1170 FILLER_3_261
*1171 FILLER_3_273
*1172 FILLER_3_279
*1173 FILLER_3_281
*1174 FILLER_3_293
*1175 FILLER_3_3
*1176 FILLER_3_36
*1177 FILLER_3_48
*1178 FILLER_3_57
*1179 FILLER_3_69
*1180 FILLER_3_81
*1181 FILLER_3_93
*1182 FILLER_40_109
*1183 FILLER_40_11
*1184 FILLER_40_121
*1185 FILLER_40_133
*1186 FILLER_40_139
*1187 FILLER_40_141
*1188 FILLER_40_153
*1189 FILLER_40_165
*1190 FILLER_40_177
*1191 FILLER_40_189
*1192 FILLER_40_19
*1193 FILLER_40_195
*1194 FILLER_40_197
*1195 FILLER_40_209
*1196 FILLER_40_221
*1197 FILLER_40_233
*1198 FILLER_40_245
*1199 FILLER_40_251
*1200 FILLER_40_253
*1201 FILLER_40_265
*1202 FILLER_40_27
*1203 FILLER_40_277
*1204 FILLER_40_289
*1205 FILLER_40_29
*1206 FILLER_40_297
*1207 FILLER_40_3
*1208 FILLER_40_41
*1209 FILLER_40_53
*1210 FILLER_40_65
*1211 FILLER_40_77
*1212 FILLER_40_83
*1213 FILLER_40_85
*1214 FILLER_40_97
*1215 FILLER_41_108
*1216 FILLER_41_113
*1217 FILLER_41_125
*1218 FILLER_41_137
*1219 FILLER_41_149
*1220 FILLER_41_15
*1221 FILLER_41_161
*1222 FILLER_41_167
*1223 FILLER_41_169
*1224 FILLER_41_181
*1225 FILLER_41_193
*1226 FILLER_41_205
*1227 FILLER_41_217
*1228 FILLER_41_223
*1229 FILLER_41_225
*1230 FILLER_41_237
*1231 FILLER_41_249
*1232 FILLER_41_261
*1233 FILLER_41_27
*1234 FILLER_41_273
*1235 FILLER_41_279
*1236 FILLER_41_281
*1237 FILLER_41_293
*1238 FILLER_41_3
*1239 FILLER_41_39
*1240 FILLER_41_51
*1241 FILLER_41_55
*1242 FILLER_41_60
*1243 FILLER_41_72
*1244 FILLER_41_84
*1245 FILLER_41_96
*1246 FILLER_42_109
*1247 FILLER_42_121
*1248 FILLER_42_133
*1249 FILLER_42_139
*1250 FILLER_42_141
*1251 FILLER_42_153
*1252 FILLER_42_16
*1253 FILLER_42_165
*1254 FILLER_42_177
*1255 FILLER_42_189
*1256 FILLER_42_195
*1257 FILLER_42_197
*1258 FILLER_42_209
*1259 FILLER_42_221
*1260 FILLER_42_233
*1261 FILLER_42_245
*1262 FILLER_42_251
*1263 FILLER_42_253
*1264 FILLER_42_265
*1265 FILLER_42_277
*1266 FILLER_42_289
*1267 FILLER_42_29
*1268 FILLER_42_297
*1269 FILLER_42_3
*1270 FILLER_42_41
*1271 FILLER_42_47
*1272 FILLER_42_51
*1273 FILLER_42_63
*1274 FILLER_42_75
*1275 FILLER_42_83
*1276 FILLER_42_85
*1277 FILLER_42_9
*1278 FILLER_42_97
*1279 FILLER_43_105
*1280 FILLER_43_111
*1281 FILLER_43_113
*1282 FILLER_43_125
*1283 FILLER_43_137
*1284 FILLER_43_149
*1285 FILLER_43_161
*1286 FILLER_43_167
*1287 FILLER_43_169
*1288 FILLER_43_181
*1289 FILLER_43_193
*1290 FILLER_43_205
*1291 FILLER_43_21
*1292 FILLER_43_217
*1293 FILLER_43_223
*1294 FILLER_43_225
*1295 FILLER_43_237
*1296 FILLER_43_249
*1297 FILLER_43_261
*1298 FILLER_43_273
*1299 FILLER_43_279
*1300 FILLER_43_281
*1301 FILLER_43_293
*1302 FILLER_43_3
*1303 FILLER_43_33
*1304 FILLER_43_45
*1305 FILLER_43_53
*1306 FILLER_43_57
*1307 FILLER_43_69
*1308 FILLER_43_81
*1309 FILLER_43_9
*1310 FILLER_43_93
*1311 FILLER_44_109
*1312 FILLER_44_121
*1313 FILLER_44_133
*1314 FILLER_44_139
*1315 FILLER_44_141
*1316 FILLER_44_15
*1317 FILLER_44_153
*1318 FILLER_44_165
*1319 FILLER_44_177
*1320 FILLER_44_189
*1321 FILLER_44_195
*1322 FILLER_44_197
*1323 FILLER_44_209
*1324 FILLER_44_221
*1325 FILLER_44_233
*1326 FILLER_44_245
*1327 FILLER_44_251
*1328 FILLER_44_253
*1329 FILLER_44_265
*1330 FILLER_44_27
*1331 FILLER_44_277
*1332 FILLER_44_289
*1333 FILLER_44_29
*1334 FILLER_44_297
*1335 FILLER_44_3
*1336 FILLER_44_41
*1337 FILLER_44_53
*1338 FILLER_44_65
*1339 FILLER_44_77
*1340 FILLER_44_83
*1341 FILLER_44_85
*1342 FILLER_44_97
*1343 FILLER_45_105
*1344 FILLER_45_111
*1345 FILLER_45_113
*1346 FILLER_45_125
*1347 FILLER_45_137
*1348 FILLER_45_149
*1349 FILLER_45_15
*1350 FILLER_45_161
*1351 FILLER_45_167
*1352 FILLER_45_169
*1353 FILLER_45_181
*1354 FILLER_45_193
*1355 FILLER_45_205
*1356 FILLER_45_217
*1357 FILLER_45_223
*1358 FILLER_45_225
*1359 FILLER_45_237
*1360 FILLER_45_249
*1361 FILLER_45_261
*1362 FILLER_45_27
*1363 FILLER_45_273
*1364 FILLER_45_279
*1365 FILLER_45_281
*1366 FILLER_45_293
*1367 FILLER_45_3
*1368 FILLER_45_39
*1369 FILLER_45_51
*1370 FILLER_45_55
*1371 FILLER_45_57
*1372 FILLER_45_69
*1373 FILLER_45_81
*1374 FILLER_45_93
*1375 FILLER_46_109
*1376 FILLER_46_121
*1377 FILLER_46_133
*1378 FILLER_46_139
*1379 FILLER_46_141
*1380 FILLER_46_15
*1381 FILLER_46_153
*1382 FILLER_46_165
*1383 FILLER_46_177
*1384 FILLER_46_189
*1385 FILLER_46_195
*1386 FILLER_46_197
*1387 FILLER_46_209
*1388 FILLER_46_221
*1389 FILLER_46_233
*1390 FILLER_46_245
*1391 FILLER_46_251
*1392 FILLER_46_253
*1393 FILLER_46_265
*1394 FILLER_46_27
*1395 FILLER_46_277
*1396 FILLER_46_289
*1397 FILLER_46_29
*1398 FILLER_46_297
*1399 FILLER_46_3
*1400 FILLER_46_41
*1401 FILLER_46_53
*1402 FILLER_46_65
*1403 FILLER_46_77
*1404 FILLER_46_83
*1405 FILLER_46_85
*1406 FILLER_46_97
*1407 FILLER_47_105
*1408 FILLER_47_111
*1409 FILLER_47_113
*1410 FILLER_47_125
*1411 FILLER_47_137
*1412 FILLER_47_149
*1413 FILLER_47_15
*1414 FILLER_47_161
*1415 FILLER_47_167
*1416 FILLER_47_169
*1417 FILLER_47_181
*1418 FILLER_47_193
*1419 FILLER_47_205
*1420 FILLER_47_217
*1421 FILLER_47_223
*1422 FILLER_47_225
*1423 FILLER_47_237
*1424 FILLER_47_249
*1425 FILLER_47_261
*1426 FILLER_47_27
*1427 FILLER_47_273
*1428 FILLER_47_279
*1429 FILLER_47_281
*1430 FILLER_47_293
*1431 FILLER_47_3
*1432 FILLER_47_39
*1433 FILLER_47_51
*1434 FILLER_47_55
*1435 FILLER_47_57
*1436 FILLER_47_69
*1437 FILLER_47_81
*1438 FILLER_47_93
*1439 FILLER_48_109
*1440 FILLER_48_121
*1441 FILLER_48_133
*1442 FILLER_48_139
*1443 FILLER_48_141
*1444 FILLER_48_153
*1445 FILLER_48_165
*1446 FILLER_48_177
*1447 FILLER_48_189
*1448 FILLER_48_195
*1449 FILLER_48_197
*1450 FILLER_48_209
*1451 FILLER_48_21
*1452 FILLER_48_221
*1453 FILLER_48_233
*1454 FILLER_48_245
*1455 FILLER_48_251
*1456 FILLER_48_253
*1457 FILLER_48_265
*1458 FILLER_48_27
*1459 FILLER_48_277
*1460 FILLER_48_289
*1461 FILLER_48_29
*1462 FILLER_48_297
*1463 FILLER_48_3
*1464 FILLER_48_41
*1465 FILLER_48_53
*1466 FILLER_48_65
*1467 FILLER_48_77
*1468 FILLER_48_83
*1469 FILLER_48_85
*1470 FILLER_48_9
*1471 FILLER_48_97
*1472 FILLER_49_105
*1473 FILLER_49_111
*1474 FILLER_49_113
*1475 FILLER_49_125
*1476 FILLER_49_137
*1477 FILLER_49_149
*1478 FILLER_49_15
*1479 FILLER_49_161
*1480 FILLER_49_167
*1481 FILLER_49_169
*1482 FILLER_49_181
*1483 FILLER_49_193
*1484 FILLER_49_205
*1485 FILLER_49_217
*1486 FILLER_49_223
*1487 FILLER_49_225
*1488 FILLER_49_237
*1489 FILLER_49_249
*1490 FILLER_49_261
*1491 FILLER_49_27
*1492 FILLER_49_273
*1493 FILLER_49_279
*1494 FILLER_49_281
*1495 FILLER_49_293
*1496 FILLER_49_3
*1497 FILLER_49_39
*1498 FILLER_49_51
*1499 FILLER_49_55
*1500 FILLER_49_57
*1501 FILLER_49_69
*1502 FILLER_49_81
*1503 FILLER_49_93
*1504 FILLER_4_109
*1505 FILLER_4_121
*1506 FILLER_4_133
*1507 FILLER_4_139
*1508 FILLER_4_141
*1509 FILLER_4_153
*1510 FILLER_4_165
*1511 FILLER_4_177
*1512 FILLER_4_189
*1513 FILLER_4_19
*1514 FILLER_4_195
*1515 FILLER_4_197
*1516 FILLER_4_209
*1517 FILLER_4_221
*1518 FILLER_4_233
*1519 FILLER_4_245
*1520 FILLER_4_251
*1521 FILLER_4_253
*1522 FILLER_4_265
*1523 FILLER_4_27
*1524 FILLER_4_277
*1525 FILLER_4_289
*1526 FILLER_4_297
*1527 FILLER_4_45
*1528 FILLER_4_57
*1529 FILLER_4_69
*1530 FILLER_4_81
*1531 FILLER_4_85
*1532 FILLER_4_97
*1533 FILLER_50_109
*1534 FILLER_50_121
*1535 FILLER_50_133
*1536 FILLER_50_139
*1537 FILLER_50_141
*1538 FILLER_50_15
*1539 FILLER_50_153
*1540 FILLER_50_165
*1541 FILLER_50_177
*1542 FILLER_50_189
*1543 FILLER_50_195
*1544 FILLER_50_197
*1545 FILLER_50_209
*1546 FILLER_50_221
*1547 FILLER_50_233
*1548 FILLER_50_245
*1549 FILLER_50_251
*1550 FILLER_50_253
*1551 FILLER_50_265
*1552 FILLER_50_27
*1553 FILLER_50_277
*1554 FILLER_50_289
*1555 FILLER_50_29
*1556 FILLER_50_297
*1557 FILLER_50_3
*1558 FILLER_50_41
*1559 FILLER_50_53
*1560 FILLER_50_65
*1561 FILLER_50_77
*1562 FILLER_50_83
*1563 FILLER_50_85
*1564 FILLER_50_97
*1565 FILLER_51_105
*1566 FILLER_51_111
*1567 FILLER_51_113
*1568 FILLER_51_125
*1569 FILLER_51_137
*1570 FILLER_51_149
*1571 FILLER_51_15
*1572 FILLER_51_161
*1573 FILLER_51_167
*1574 FILLER_51_169
*1575 FILLER_51_181
*1576 FILLER_51_193
*1577 FILLER_51_205
*1578 FILLER_51_217
*1579 FILLER_51_223
*1580 FILLER_51_225
*1581 FILLER_51_23
*1582 FILLER_51_237
*1583 FILLER_51_249
*1584 FILLER_51_261
*1585 FILLER_51_273
*1586 FILLER_51_279
*1587 FILLER_51_28
*1588 FILLER_51_281
*1589 FILLER_51_293
*1590 FILLER_51_3
*1591 FILLER_51_40
*1592 FILLER_51_52
*1593 FILLER_51_57
*1594 FILLER_51_69
*1595 FILLER_51_81
*1596 FILLER_51_93
*1597 FILLER_52_109