*SPEF "ieee 1481-1999"
*DESIGN "user_module_348255968419643987"
*DATE "11:11:11 Fri 11 11, 1111"
*VENDOR "OpenRCX"
*PROGRAM "Parallel Extraction"
*VERSION "1.0"
*DESIGN_FLOW "NAME_SCOPE LOCAL" "PIN_CAP NONE"
*DIVIDER /
*DELIMITER :
*BUS_DELIMITER []
*T_UNIT 1 NS
*C_UNIT 1 PF
*R_UNIT 1 OHM
*L_UNIT 1 HENRY

*NAME_MAP
*1 io_in[0]
*2 io_in[1]
*3 io_in[2]
*4 io_in[3]
*5 io_in[4]
*6 io_in[5]
*7 io_in[6]
*8 io_in[7]
*9 io_out[0]
*10 io_out[1]
*11 io_out[2]
*12 io_out[3]
*13 net9
*14 net10
*15 net11
*16 net12
*19 _000_
*20 _001_
*21 _002_
*22 _003_
*23 _004_
*24 _005_
*25 _006_
*26 _007_
*27 _008_
*28 _009_
*29 _010_
*30 _011_
*31 _012_
*32 _013_
*33 _014_
*34 _015_
*35 _016_
*36 _017_
*37 _018_
*38 _019_
*39 _020_
*40 _021_
*41 _022_
*42 _023_
*43 _024_
*44 _025_
*45 _026_
*46 _027_
*47 _028_
*48 _029_
*49 _030_
*50 _031_
*51 _032_
*52 _033_
*53 _034_
*54 _035_
*55 _036_
*56 _037_
*57 _038_
*58 _039_
*59 clknet_0_io_in[0]
*60 clknet_1_0__leaf_io_in[0]
*61 clknet_1_1__leaf_io_in[0]
*62 flipflop1\.clk
*63 flipflop1\.d
*64 flipflop1\.q
*65 flipflop2\.q
*66 flipflop3\.clk
*67 flipflop3\.q
*68 flipflop4\.clk
*69 flipflop4\.q
*70 flipflop5\.clk
*71 flipflop5\.q
*72 flipflop6\.clk
*73 flipflop6\.q
*74 flipflop7\.clk
*75 flipflop7\.q
*76 flipflop8\.clk
*77 flipflop8\.d
*78 flipflop9\.d
*79 flipflop9\.q
*80 net1
*81 net2
*82 net3
*83 net4
*84 net5
*85 net6
*86 net7
*87 net8
*88 FILLER_0_109
*89 FILLER_0_113
*90 FILLER_0_125
*91 FILLER_0_137
*92 FILLER_0_141
*93 FILLER_0_153
*94 FILLER_0_165
*95 FILLER_0_169
*96 FILLER_0_181
*97 FILLER_0_193
*98 FILLER_0_197
*99 FILLER_0_209
*100 FILLER_0_221
*101 FILLER_0_225
*102 FILLER_0_237
*103 FILLER_0_24
*104 FILLER_0_249
*105 FILLER_0_253
*106 FILLER_0_265
*107 FILLER_0_277
*108 FILLER_0_281
*109 FILLER_0_293
*110 FILLER_0_3
*111 FILLER_0_38
*112 FILLER_0_50
*113 FILLER_0_57
*114 FILLER_0_69
*115 FILLER_0_7
*116 FILLER_0_81
*117 FILLER_0_85
*118 FILLER_0_97
*119 FILLER_10_109
*120 FILLER_10_121
*121 FILLER_10_133
*122 FILLER_10_139
*123 FILLER_10_141
*124 FILLER_10_15
*125 FILLER_10_153
*126 FILLER_10_165
*127 FILLER_10_177
*128 FILLER_10_189
*129 FILLER_10_195
*130 FILLER_10_197
*131 FILLER_10_209
*132 FILLER_10_221
*133 FILLER_10_233
*134 FILLER_10_245
*135 FILLER_10_251
*136 FILLER_10_253
*137 FILLER_10_265
*138 FILLER_10_27
*139 FILLER_10_277
*140 FILLER_10_289
*141 FILLER_10_29
*142 FILLER_10_297
*143 FILLER_10_3
*144 FILLER_10_41
*145 FILLER_10_53
*146 FILLER_10_65
*147 FILLER_10_77
*148 FILLER_10_83
*149 FILLER_10_85
*150 FILLER_10_97
*151 FILLER_11_105
*152 FILLER_11_111
*153 FILLER_11_113
*154 FILLER_11_125
*155 FILLER_11_137
*156 FILLER_11_149
*157 FILLER_11_15
*158 FILLER_11_161
*159 FILLER_11_167
*160 FILLER_11_169
*161 FILLER_11_181
*162 FILLER_11_193
*163 FILLER_11_205
*164 FILLER_11_217
*165 FILLER_11_223
*166 FILLER_11_225
*167 FILLER_11_237
*168 FILLER_11_249
*169 FILLER_11_261
*170 FILLER_11_27
*171 FILLER_11_273
*172 FILLER_11_279
*173 FILLER_11_281
*174 FILLER_11_293
*175 FILLER_11_3
*176 FILLER_11_39
*177 FILLER_11_51
*178 FILLER_11_55
*179 FILLER_11_57
*180 FILLER_11_69
*181 FILLER_11_81
*182 FILLER_11_93
*183 FILLER_12_109
*184 FILLER_12_121
*185 FILLER_12_133
*186 FILLER_12_139
*187 FILLER_12_141
*188 FILLER_12_153
*189 FILLER_12_165
*190 FILLER_12_177
*191 FILLER_12_18
*192 FILLER_12_189
*193 FILLER_12_195
*194 FILLER_12_197
*195 FILLER_12_209
*196 FILLER_12_221
*197 FILLER_12_233
*198 FILLER_12_245
*199 FILLER_12_251
*200 FILLER_12_253
*201 FILLER_12_26
*202 FILLER_12_265
*203 FILLER_12_277
*204 FILLER_12_289
*205 FILLER_12_29
*206 FILLER_12_297
*207 FILLER_12_41
*208 FILLER_12_53
*209 FILLER_12_6
*210 FILLER_12_65
*211 FILLER_12_77
*212 FILLER_12_83
*213 FILLER_12_85
*214 FILLER_12_97
*215 FILLER_13_105
*216 FILLER_13_111
*217 FILLER_13_113
*218 FILLER_13_125
*219 FILLER_13_137
*220 FILLER_13_149
*221 FILLER_13_161
*222 FILLER_13_167
*223 FILLER_13_169
*224 FILLER_13_18
*225 FILLER_13_181
*226 FILLER_13_193
*227 FILLER_13_205
*228 FILLER_13_217
*229 FILLER_13_223
*230 FILLER_13_225
*231 FILLER_13_237
*232 FILLER_13_249
*233 FILLER_13_261
*234 FILLER_13_273
*235 FILLER_13_279
*236 FILLER_13_281
*237 FILLER_13_293
*238 FILLER_13_3
*239 FILLER_13_30
*240 FILLER_13_42
*241 FILLER_13_54
*242 FILLER_13_57
*243 FILLER_13_69
*244 FILLER_13_81
*245 FILLER_13_9
*246 FILLER_13_93
*247 FILLER_14_109
*248 FILLER_14_121
*249 FILLER_14_13
*250 FILLER_14_133
*251 FILLER_14_139
*252 FILLER_14_141
*253 FILLER_14_153
*254 FILLER_14_165
*255 FILLER_14_177
*256 FILLER_14_189
*257 FILLER_14_195
*258 FILLER_14_197
*259 FILLER_14_209
*260 FILLER_14_221
*261 FILLER_14_233
*262 FILLER_14_245
*263 FILLER_14_25
*264 FILLER_14_251
*265 FILLER_14_253
*266 FILLER_14_265
*267 FILLER_14_277
*268 FILLER_14_289
*269 FILLER_14_29
*270 FILLER_14_297
*271 FILLER_14_3
*272 FILLER_14_37
*273 FILLER_14_42
*274 FILLER_14_54
*275 FILLER_14_66
*276 FILLER_14_78
*277 FILLER_14_85
*278 FILLER_14_97
*279 FILLER_15_105
*280 FILLER_15_111
*281 FILLER_15_113
*282 FILLER_15_12
*283 FILLER_15_125
*284 FILLER_15_137
*285 FILLER_15_149
*286 FILLER_15_161
*287 FILLER_15_167
*288 FILLER_15_169
*289 FILLER_15_181
*290 FILLER_15_193
*291 FILLER_15_205
*292 FILLER_15_217
*293 FILLER_15_22
*294 FILLER_15_223
*295 FILLER_15_225
*296 FILLER_15_237
*297 FILLER_15_249
*298 FILLER_15_261
*299 FILLER_15_273
*300 FILLER_15_279
*301 FILLER_15_281
*302 FILLER_15_293
*303 FILLER_15_3
*304 FILLER_15_36
*305 FILLER_15_48
*306 FILLER_15_57
*307 FILLER_15_69
*308 FILLER_15_7
*309 FILLER_15_81
*310 FILLER_15_93
*311 FILLER_16_109
*312 FILLER_16_11
*313 FILLER_16_121
*314 FILLER_16_133
*315 FILLER_16_139
*316 FILLER_16_141
*317 FILLER_16_153
*318 FILLER_16_165
*319 FILLER_16_177
*320 FILLER_16_18
*321 FILLER_16_189
*322 FILLER_16_195
*323 FILLER_16_197
*324 FILLER_16_209
*325 FILLER_16_221
*326 FILLER_16_233
*327 FILLER_16_245
*328 FILLER_16_251
*329 FILLER_16_253
*330 FILLER_16_26
*331 FILLER_16_265
*332 FILLER_16_277
*333 FILLER_16_289
*334 FILLER_16_297
*335 FILLER_16_3
*336 FILLER_16_32
*337 FILLER_16_40
*338 FILLER_16_44
*339 FILLER_16_56
*340 FILLER_16_68
*341 FILLER_16_80
*342 FILLER_16_85
*343 FILLER_16_97
*344 FILLER_17_105
*345 FILLER_17_111
*346 FILLER_17_113
*347 FILLER_17_125
*348 FILLER_17_137
*349 FILLER_17_149
*350 FILLER_17_161
*351 FILLER_17_167
*352 FILLER_17_169
*353 FILLER_17_181
*354 FILLER_17_19
*355 FILLER_17_193
*356 FILLER_17_205
*357 FILLER_17_217
*358 FILLER_17_223
*359 FILLER_17_225
*360 FILLER_17_237
*361 FILLER_17_249
*362 FILLER_17_26
*363 FILLER_17_261
*364 FILLER_17_273
*365 FILLER_17_279
*366 FILLER_17_281
*367 FILLER_17_293
*368 FILLER_17_3
*369 FILLER_17_38
*370 FILLER_17_47
*371 FILLER_17_55
*372 FILLER_17_57
*373 FILLER_17_69
*374 FILLER_17_8
*375 FILLER_17_81
*376 FILLER_17_93
*377 FILLER_18_10
*378 FILLER_18_109
*379 FILLER_18_121
*380 FILLER_18_133
*381 FILLER_18_139
*382 FILLER_18_141
*383 FILLER_18_153
*384 FILLER_18_165
*385 FILLER_18_17
*386 FILLER_18_177
*387 FILLER_18_189
*388 FILLER_18_195
*389 FILLER_18_197
*390 FILLER_18_209
*391 FILLER_18_221
*392 FILLER_18_233
*393 FILLER_18_24
*394 FILLER_18_245
*395 FILLER_18_251
*396 FILLER_18_253
*397 FILLER_18_265
*398 FILLER_18_277
*399 FILLER_18_289
*400 FILLER_18_29
*401 FILLER_18_297
*402 FILLER_18_3
*403 FILLER_18_42
*404 FILLER_18_54
*405 FILLER_18_66
*406 FILLER_18_78
*407 FILLER_18_85
*408 FILLER_18_97
*409 FILLER_19_105
*410 FILLER_19_111
*411 FILLER_19_113
*412 FILLER_19_125
*413 FILLER_19_137
*414 FILLER_19_149
*415 FILLER_19_161
*416 FILLER_19_167
*417 FILLER_19_169
*418 FILLER_19_17
*419 FILLER_19_181
*420 FILLER_19_193
*421 FILLER_19_205
*422 FILLER_19_217
*423 FILLER_19_223
*424 FILLER_19_225
*425 FILLER_19_237
*426 FILLER_19_249
*427 FILLER_19_25
*428 FILLER_19_261
*429 FILLER_19_273
*430 FILLER_19_279
*431 FILLER_19_281
*432 FILLER_19_293
*433 FILLER_19_30
*434 FILLER_19_38
*435 FILLER_19_45
*436 FILLER_19_53
*437 FILLER_19_57
*438 FILLER_19_69
*439 FILLER_19_81
*440 FILLER_19_9
*441 FILLER_19_93
*442 FILLER_1_105
*443 FILLER_1_111
*444 FILLER_1_113
*445 FILLER_1_12
*446 FILLER_1_125
*447 FILLER_1_137
*448 FILLER_1_149
*449 FILLER_1_161
*450 FILLER_1_167
*451 FILLER_1_169
*452 FILLER_1_181
*453 FILLER_1_193
*454 FILLER_1_205
*455 FILLER_1_217
*456 FILLER_1_223
*457 FILLER_1_225
*458 FILLER_1_237
*459 FILLER_1_249
*460 FILLER_1_261
*461 FILLER_1_273
*462 FILLER_1_279
*463 FILLER_1_281
*464 FILLER_1_293
*465 FILLER_1_36
*466 FILLER_1_43
*467 FILLER_1_55
*468 FILLER_1_57
*469 FILLER_1_69
*470 FILLER_1_81
*471 FILLER_1_93
*472 FILLER_20_10
*473 FILLER_20_109
*474 FILLER_20_121
*475 FILLER_20_133
*476 FILLER_20_139
*477 FILLER_20_141
*478 FILLER_20_153
*479 FILLER_20_165
*480 FILLER_20_177
*481 FILLER_20_189
*482 FILLER_20_195
*483 FILLER_20_197
*484 FILLER_20_209
*485 FILLER_20_22
*486 FILLER_20_221
*487 FILLER_20_233
*488 FILLER_20_245
*489 FILLER_20_251
*490 FILLER_20_253
*491 FILLER_20_265
*492 FILLER_20_277
*493 FILLER_20_289
*494 FILLER_20_297
*495 FILLER_20_3
*496 FILLER_20_39
*497 FILLER_20_51
*498 FILLER_20_63
*499 FILLER_20_75
*500 FILLER_20_83
*501 FILLER_20_85
*502 FILLER_20_97
*503 FILLER_21_105
*504 FILLER_21_111
*505 FILLER_21_113
*506 FILLER_21_125
*507 FILLER_21_137
*508 FILLER_21_149
*509 FILLER_21_15
*510 FILLER_21_161
*511 FILLER_21_167
*512 FILLER_21_169
*513 FILLER_21_181
*514 FILLER_21_193
*515 FILLER_21_205
*516 FILLER_21_217
*517 FILLER_21_22
*518 FILLER_21_223
*519 FILLER_21_225
*520 FILLER_21_237
*521 FILLER_21_249
*522 FILLER_21_261
*523 FILLER_21_273
*524 FILLER_21_279
*525 FILLER_21_281
*526 FILLER_21_293
*527 FILLER_21_30
*528 FILLER_21_41
*529 FILLER_21_53
*530 FILLER_21_57
*531 FILLER_21_6
*532 FILLER_21_69
*533 FILLER_21_81
*534 FILLER_21_93
*535 FILLER_22_109
*536 FILLER_22_12
*537 FILLER_22_121
*538 FILLER_22_133
*539 FILLER_22_139
*540 FILLER_22_141
*541 FILLER_22_153
*542 FILLER_22_165
*543 FILLER_22_177
*544 FILLER_22_189
*545 FILLER_22_19
*546 FILLER_22_195
*547 FILLER_22_197
*548 FILLER_22_209
*549 FILLER_22_221
*550 FILLER_22_233
*551 FILLER_22_245
*552 FILLER_22_251
*553 FILLER_22_253
*554 FILLER_22_265
*555 FILLER_22_27
*556 FILLER_22_277
*557 FILLER_22_289
*558 FILLER_22_29
*559 FILLER_22_297
*560 FILLER_22_33
*561 FILLER_22_40
*562 FILLER_22_52
*563 FILLER_22_64
*564 FILLER_22_76
*565 FILLER_22_85
*566 FILLER_22_97
*567 FILLER_23_105
*568 FILLER_23_111
*569 FILLER_23_113
*570 FILLER_23_125
*571 FILLER_23_13
*572 FILLER_23_137
*573 FILLER_23_149
*574 FILLER_23_161
*575 FILLER_23_167
*576 FILLER_23_169
*577 FILLER_23_181
*578 FILLER_23_193
*579 FILLER_23_205
*580 FILLER_23_217
*581 FILLER_23_223
*582 FILLER_23_225
*583 FILLER_23_237
*584 FILLER_23_249
*585 FILLER_23_25
*586 FILLER_23_261
*587 FILLER_23_273
*588 FILLER_23_279
*589 FILLER_23_281
*590 FILLER_23_293
*591 FILLER_23_3
*592 FILLER_23_37
*593 FILLER_23_49
*594 FILLER_23_55
*595 FILLER_23_57
*596 FILLER_23_69
*597 FILLER_23_81
*598 FILLER_23_9
*599 FILLER_23_93
*600 FILLER_24_109
*601 FILLER_24_121
*602 FILLER_24_133
*603 FILLER_24_139
*604 FILLER_24_141
*605 FILLER_24_153
*606 FILLER_24_165
*607 FILLER_24_17
*608 FILLER_24_177
*609 FILLER_24_189
*610 FILLER_24_195
*611 FILLER_24_197
*612 FILLER_24_209
*613 FILLER_24_221
*614 FILLER_24_233
*615 FILLER_24_245
*616 FILLER_24_25
*617 FILLER_24_251
*618 FILLER_24_253
*619 FILLER_24_265
*620 FILLER_24_277
*621 FILLER_24_289
*622 FILLER_24_29
*623 FILLER_24_297
*624 FILLER_24_41
*625 FILLER_24_53
*626 FILLER_24_6
*627 FILLER_24_65
*628 FILLER_24_77
*629 FILLER_24_83
*630 FILLER_24_85
*631 FILLER_24_97
*632 FILLER_25_105
*633 FILLER_25_111
*634 FILLER_25_113
*635 FILLER_25_125
*636 FILLER_25_137
*637 FILLER_25_149
*638 FILLER_25_15
*639 FILLER_25_161
*640 FILLER_25_167
*641 FILLER_25_169
*642 FILLER_25_181
*643 FILLER_25_193
*644 FILLER_25_20
*645 FILLER_25_205
*646 FILLER_25_217
*647 FILLER_25_223
*648 FILLER_25_225
*649 FILLER_25_237
*650 FILLER_25_249
*651 FILLER_25_261
*652 FILLER_25_273
*653 FILLER_25_279
*654 FILLER_25_281
*655 FILLER_25_293
*656 FILLER_25_3
*657 FILLER_25_32
*658 FILLER_25_44
*659 FILLER_25_57
*660 FILLER_25_69
*661 FILLER_25_81
*662 FILLER_25_93
*663 FILLER_26_109
*664 FILLER_26_11
*665 FILLER_26_121
*666 FILLER_26_133
*667 FILLER_26_139
*668 FILLER_26_141
*669 FILLER_26_153
*670 FILLER_26_165
*671 FILLER_26_177
*672 FILLER_26_189
*673 FILLER_26_195
*674 FILLER_26_197
*675 FILLER_26_20
*676 FILLER_26_209
*677 FILLER_26_221
*678 FILLER_26_233
*679 FILLER_26_245
*680 FILLER_26_251
*681 FILLER_26_253
*682 FILLER_26_265
*683 FILLER_26_277
*684 FILLER_26_289
*685 FILLER_26_29
*686 FILLER_26_297
*687 FILLER_26_3
*688 FILLER_26_41
*689 FILLER_26_53
*690 FILLER_26_65
*691 FILLER_26_77
*692 FILLER_26_83
*693 FILLER_26_85
*694 FILLER_26_97
*695 FILLER_27_105
*696 FILLER_27_111
*697 FILLER_27_113
*698 FILLER_27_125
*699 FILLER_27_137
*700 FILLER_27_149
*701 FILLER_27_161
*702 FILLER_27_167
*703 FILLER_27_169
*704 FILLER_27_18
*705 FILLER_27_181
*706 FILLER_27_193
*707 FILLER_27_205
*708 FILLER_27_217
*709 FILLER_27_223
*710 FILLER_27_225
*711 FILLER_27_237
*712 FILLER_27_249
*713 FILLER_27_261
*714 FILLER_27_273
*715 FILLER_27_279
*716 FILLER_27_281
*717 FILLER_27_293
*718 FILLER_27_30
*719 FILLER_27_42
*720 FILLER_27_54
*721 FILLER_27_57
*722 FILLER_27_6
*723 FILLER_27_69
*724 FILLER_27_81
*725 FILLER_27_93
*726 FILLER_28_109
*727 FILLER_28_121
*728 FILLER_28_133
*729 FILLER_28_139
*730 FILLER_28_141
*731 FILLER_28_15
*732 FILLER_28_153
*733 FILLER_28_165
*734 FILLER_28_177
*735 FILLER_28_189
*736 FILLER_28_195
*737 FILLER_28_197
*738 FILLER_28_209
*739 FILLER_28_221
*740 FILLER_28_233
*741 FILLER_28_24
*742 FILLER_28_245
*743 FILLER_28_251
*744 FILLER_28_253
*745 FILLER_28_265
*746 FILLER_28_277
*747 FILLER_28_289
*748 FILLER_28_29
*749 FILLER_28_297
*750 FILLER_28_3
*751 FILLER_28_37
*752 FILLER_28_49
*753 FILLER_28_61
*754 FILLER_28_73
*755 FILLER_28_81
*756 FILLER_28_85
*757 FILLER_28_97
*758 FILLER_29_105
*759 FILLER_29_111
*760 FILLER_29_113
*761 FILLER_29_125
*762 FILLER_29_137
*763 FILLER_29_149
*764 FILLER_29_15
*765 FILLER_29_161
*766 FILLER_29_167
*767 FILLER_29_169
*768 FILLER_29_181
*769 FILLER_29_193
*770 FILLER_29_205
*771 FILLER_29_217
*772 FILLER_29_223
*773 FILLER_29_225
*774 FILLER_29_237
*775 FILLER_29_249
*776 FILLER_29_261
*777 FILLER_29_27
*778 FILLER_29_273
*779 FILLER_29_279
*780 FILLER_29_281
*781 FILLER_29_293
*782 FILLER_29_3
*783 FILLER_29_39
*784 FILLER_29_51
*785 FILLER_29_55
*786 FILLER_29_57
*787 FILLER_29_69
*788 FILLER_29_81
*789 FILLER_29_93
*790 FILLER_2_109
*791 FILLER_2_11
*792 FILLER_2_121
*793 FILLER_2_133
*794 FILLER_2_139
*795 FILLER_2_141
*796 FILLER_2_153
*797 FILLER_2_165
*798 FILLER_2_177
*799 FILLER_2_189
*800 FILLER_2_195
*801 FILLER_2_197
*802 FILLER_2_209
*803 FILLER_2_221
*804 FILLER_2_233
*805 FILLER_2_24
*806 FILLER_2_245
*807 FILLER_2_251
*808 FILLER_2_253
*809 FILLER_2_265
*810 FILLER_2_277
*811 FILLER_2_289
*812 FILLER_2_297
*813 FILLER_2_3
*814 FILLER_2_45
*815 FILLER_2_57
*816 FILLER_2_69
*817 FILLER_2_7
*818 FILLER_2_81
*819 FILLER_2_85
*820 FILLER_2_97
*821 FILLER_30_109
*822 FILLER_30_11
*823 FILLER_30_121
*824 FILLER_30_133
*825 FILLER_30_139
*826 FILLER_30_141
*827 FILLER_30_153
*828 FILLER_30_165
*829 FILLER_30_177
*830 FILLER_30_189
*831 FILLER_30_195
*832 FILLER_30_197
*833 FILLER_30_209
*834 FILLER_30_221
*835 FILLER_30_23
*836 FILLER_30_233
*837 FILLER_30_245
*838 FILLER_30_251
*839 FILLER_30_253
*840 FILLER_30_265
*841 FILLER_30_27
*842 FILLER_30_277
*843 FILLER_30_289
*844 FILLER_30_29
*845 FILLER_30_297
*846 FILLER_30_3
*847 FILLER_30_41
*848 FILLER_30_53
*849 FILLER_30_65
*850 FILLER_30_77
*851 FILLER_30_83
*852 FILLER_30_85
*853 FILLER_30_97
*854 FILLER_31_105
*855 FILLER_31_111
*856 FILLER_31_113
*857 FILLER_31_125
*858 FILLER_31_137
*859 FILLER_31_149
*860 FILLER_31_15
*861 FILLER_31_161
*862 FILLER_31_167
*863 FILLER_31_169
*864 FILLER_31_181
*865 FILLER_31_193
*866 FILLER_31_205
*867 FILLER_31_217
*868 FILLER_31_223
*869 FILLER_31_225
*870 FILLER_31_237
*871 FILLER_31_249
*872 FILLER_31_261
*873 FILLER_31_27
*874 FILLER_31_273
*875 FILLER_31_279
*876 FILLER_31_281
*877 FILLER_31_293
*878 FILLER_31_3
*879 FILLER_31_39
*880 FILLER_31_51
*881 FILLER_31_55
*882 FILLER_31_57
*883 FILLER_31_69
*884 FILLER_31_81
*885 FILLER_31_93
*886 FILLER_32_109
*887 FILLER_32_121
*888 FILLER_32_133
*889 FILLER_32_139
*890 FILLER_32_141
*891 FILLER_32_15
*892 FILLER_32_153
*893 FILLER_32_165
*894 FILLER_32_177
*895 FILLER_32_189
*896 FILLER_32_195
*897 FILLER_32_197
*898 FILLER_32_209
*899 FILLER_32_221
*900 FILLER_32_233
*901 FILLER_32_245
*902 FILLER_32_251
*903 FILLER_32_253
*904 FILLER_32_265
*905 FILLER_32_27
*906 FILLER_32_277
*907 FILLER_32_289
*908 FILLER_32_29
*909 FILLER_32_297
*910 FILLER_32_3
*911 FILLER_32_41
*912 FILLER_32_53
*913 FILLER_32_65
*914 FILLER_32_77
*915 FILLER_32_83
*916 FILLER_32_85
*917 FILLER_32_97
*918 FILLER_33_105
*919 FILLER_33_111
*920 FILLER_33_113
*921 FILLER_33_125
*922 FILLER_33_137
*923 FILLER_33_149
*924 FILLER_33_161
*925 FILLER_33_167
*926 FILLER_33_169
*927 FILLER_33_181
*928 FILLER_33_193
*929 FILLER_33_205
*930 FILLER_33_21
*931 FILLER_33_217
*932 FILLER_33_223
*933 FILLER_33_225
*934 FILLER_33_237
*935 FILLER_33_249
*936 FILLER_33_261
*937 FILLER_33_273
*938 FILLER_33_279
*939 FILLER_33_281
*940 FILLER_33_293
*941 FILLER_33_3
*942 FILLER_33_33
*943 FILLER_33_45
*944 FILLER_33_53
*945 FILLER_33_57
*946 FILLER_33_69
*947 FILLER_33_81
*948 FILLER_33_93
*949 FILLER_34_109
*950 FILLER_34_121
*951 FILLER_34_133
*952 FILLER_34_139
*953 FILLER_34_141
*954 FILLER_34_153
*955 FILLER_34_165
*956 FILLER_34_17
*957 FILLER_34_177
*958 FILLER_34_189
*959 FILLER_34_195
*960 FILLER_34_197
*961 FILLER_34_209
*962 FILLER_34_221
*963 FILLER_34_233
*964 FILLER_34_245
*965 FILLER_34_25
*966 FILLER_34_251
*967 FILLER_34_253
*968 FILLER_34_265
*969 FILLER_34_277
*970 FILLER_34_289
*971 FILLER_34_29
*972 FILLER_34_297
*973 FILLER_34_3
*974 FILLER_34_41
*975 FILLER_34_53
*976 FILLER_34_65
*977 FILLER_34_77
*978 FILLER_34_83
*979 FILLER_34_85
*980 FILLER_34_9
*981 FILLER_34_97
*982 FILLER_35_105
*983 FILLER_35_111
*984 FILLER_35_113
*985 FILLER_35_125
*986 FILLER_35_137
*987 FILLER_35_149
*988 FILLER_35_15
*989 FILLER_35_161
*990 FILLER_35_167
*991 FILLER_35_169
*992 FILLER_35_181
*993 FILLER_35_193
*994 FILLER_35_205
*995 FILLER_35_217
*996 FILLER_35_223
*997 FILLER_35_225
*998 FILLER_35_237
*999 FILLER_35_249
*1000 FILLER_35_261
*1001 FILLER_35_27
*1002 FILLER_35_273
*1003 FILLER_35_279
*1004 FILLER_35_281
*1005 FILLER_35_293
*1006 FILLER_35_3
*1007 FILLER_35_39
*1008 FILLER_35_51
*1009 FILLER_35_55
*1010 FILLER_35_57
*1011 FILLER_35_69
*1012 FILLER_35_81
*1013 FILLER_35_93
*1014 FILLER_36_109
*1015 FILLER_36_121
*1016 FILLER_36_133
*1017 FILLER_36_139
*1018 FILLER_36_141
*1019 FILLER_36_153
*1020 FILLER_36_165
*1021 FILLER_36_177
*1022 FILLER_36_189
*1023 FILLER_36_195
*1024 FILLER_36_197
*1025 FILLER_36_209
*1026 FILLER_36_221
*1027 FILLER_36_233
*1028 FILLER_36_24
*1029 FILLER_36_245
*1030 FILLER_36_251
*1031 FILLER_36_253
*1032 FILLER_36_265
*1033 FILLER_36_277
*1034 FILLER_36_289
*1035 FILLER_36_29
*1036 FILLER_36_297
*1037 FILLER_36_3
*1038 FILLER_36_41
*1039 FILLER_36_53
*1040 FILLER_36_65
*1041 FILLER_36_7
*1042 FILLER_36_77
*1043 FILLER_36_83
*1044 FILLER_36_85
*1045 FILLER_36_97
*1046 FILLER_37_105
*1047 FILLER_37_111
*1048 FILLER_37_113
*1049 FILLER_37_125
*1050 FILLER_37_137
*1051 FILLER_37_149
*1052 FILLER_37_161
*1053 FILLER_37_167
*1054 FILLER_37_169
*1055 FILLER_37_181
*1056 FILLER_37_193
*1057 FILLER_37_205
*1058 FILLER_37_21
*1059 FILLER_37_217
*1060 FILLER_37_223
*1061 FILLER_37_225
*1062 FILLER_37_237
*1063 FILLER_37_249
*1064 FILLER_37_261
*1065 FILLER_37_273
*1066 FILLER_37_279
*1067 FILLER_37_281
*1068 FILLER_37_293
*1069 FILLER_37_3
*1070 FILLER_37_33
*1071 FILLER_37_45
*1072 FILLER_37_53
*1073 FILLER_37_57
*1074 FILLER_37_69
*1075 FILLER_37_81
*1076 FILLER_37_9
*1077 FILLER_37_93
*1078 FILLER_38_109
*1079 FILLER_38_121
*1080 FILLER_38_133
*1081 FILLER_38_139
*1082 FILLER_38_141
*1083 FILLER_38_15
*1084 FILLER_38_153
*1085 FILLER_38_165
*1086 FILLER_38_177
*1087 FILLER_38_189
*1088 FILLER_38_195
*1089 FILLER_38_197
*1090 FILLER_38_209
*1091 FILLER_38_221
*1092 FILLER_38_233
*1093 FILLER_38_245
*1094 FILLER_38_251
*1095 FILLER_38_253
*1096 FILLER_38_265
*1097 FILLER_38_27
*1098 FILLER_38_277
*1099 FILLER_38_289
*1100 FILLER_38_29
*1101 FILLER_38_297
*1102 FILLER_38_3
*1103 FILLER_38_41
*1104 FILLER_38_53
*1105 FILLER_38_65
*1106 FILLER_38_77
*1107 FILLER_38_83
*1108 FILLER_38_85
*1109 FILLER_38_97
*1110 FILLER_39_105
*1111 FILLER_39_11
*1112 FILLER_39_111
*1113 FILLER_39_113
*1114 FILLER_39_125
*1115 FILLER_39_137
*1116 FILLER_39_149
*1117 FILLER_39_161
*1118 FILLER_39_167
*1119 FILLER_39_169
*1120 FILLER_39_181
*1121 FILLER_39_193
*1122 FILLER_39_205
*1123 FILLER_39_217
*1124 FILLER_39_223
*1125 FILLER_39_225
*1126 FILLER_39_237
*1127 FILLER_39_249
*1128 FILLER_39_261
*1129 FILLER_39_273
*1130 FILLER_39_279
*1131 FILLER_39_28
*1132 FILLER_39_281
*1133 FILLER_39_293
*1134 FILLER_39_3
*1135 FILLER_39_40
*1136 FILLER_39_52
*1137 FILLER_39_57
*1138 FILLER_39_69
*1139 FILLER_39_81
*1140 FILLER_39_93
*1141 FILLER_3_105
*1142 FILLER_3_111
*1143 FILLER_3_113
*1144 FILLER_3_125
*1145 FILLER_3_137
*1146 FILLER_3_149
*1147 FILLER_3_16
*1148 FILLER_3_161
*1149 FILLER_3_167
*1150 FILLER_3_169
*1151 FILLER_3_181
*1152 FILLER_3_193
*1153 FILLER_3_205
*1154 FILLER_3_217
*1155 FILLER_3_223
*1156 FILLER_3_225
*1157 FILLER_3_237
*1158 FILLER_3_249
*1159 FILLER_3_261
*1160 FILLER_3_273
*1161 FILLER_3_279
*1162 FILLER_3_281
*1163 FILLER_3_293
*1164 FILLER_3_3
*1165 FILLER_3_36
*1166 FILLER_3_48
*1167 FILLER_3_57
*1168 FILLER_3_69
*1169 FILLER_3_81
*1170 FILLER_3_93
*1171 FILLER_40_109
*1172 FILLER_40_12
*1173 FILLER_40_121
*1174 FILLER_40_133
*1175 FILLER_40_139
*1176 FILLER_40_141
*1177 FILLER_40_153
*1178 FILLER_40_165
*1179 FILLER_40_177
*1180 FILLER_40_189
*1181 FILLER_40_195
*1182 FILLER_40_197
*1183 FILLER_40_209
*1184 FILLER_40_221
*1185 FILLER_40_233
*1186 FILLER_40_24
*1187 FILLER_40_245
*1188 FILLER_40_251
*1189 FILLER_40_253
*1190 FILLER_40_265
*1191 FILLER_40_277
*1192 FILLER_40_289
*1193 FILLER_40_29
*1194 FILLER_40_297
*1195 FILLER_40_3
*1196 FILLER_40_41
*1197 FILLER_40_53
*1198 FILLER_40_65
*1199 FILLER_40_7
*1200 FILLER_40_77
*1201 FILLER_40_83
*1202 FILLER_40_85
*1203 FILLER_40_97
*1204 FILLER_41_105
*1205 FILLER_41_111
*1206 FILLER_41_113
*1207 FILLER_41_125
*1208 FILLER_41_137
*1209 FILLER_41_149
*1210 FILLER_41_15
*1211 FILLER_41_161
*1212 FILLER_41_167
*1213 FILLER_41_169
*1214 FILLER_41_181
*1215 FILLER_41_193
*1216 FILLER_41_205
*1217 FILLER_41_217
*1218 FILLER_41_223
*1219 FILLER_41_225
*1220 FILLER_41_237
*1221 FILLER_41_249
*1222 FILLER_41_261
*1223 FILLER_41_27
*1224 FILLER_41_273
*1225 FILLER_41_279
*1226 FILLER_41_281
*1227 FILLER_41_293
*1228 FILLER_41_3
*1229 FILLER_41_39
*1230 FILLER_41_51
*1231 FILLER_41_55
*1232 FILLER_41_57
*1233 FILLER_41_69
*1234 FILLER_41_81
*1235 FILLER_41_93
*1236 FILLER_42_109
*1237 FILLER_42_121
*1238 FILLER_42_133
*1239 FILLER_42_139
*1240 FILLER_42_141
*1241 FILLER_42_15
*1242 FILLER_42_153
*1243 FILLER_42_165
*1244 FILLER_42_177
*1245 FILLER_42_189
*1246 FILLER_42_195
*1247 FILLER_42_197
*1248 FILLER_42_209
*1249 FILLER_42_221
*1250 FILLER_42_233
*1251 FILLER_42_245
*1252 FILLER_42_251
*1253 FILLER_42_253
*1254 FILLER_42_265
*1255 FILLER_42_27
*1256 FILLER_42_277
*1257 FILLER_42_289
*1258 FILLER_42_29
*1259 FILLER_42_297
*1260 FILLER_42_3
*1261 FILLER_42_41
*1262 FILLER_42_53
*1263 FILLER_42_65
*1264 FILLER_42_77
*1265 FILLER_42_83
*1266 FILLER_42_85
*1267 FILLER_42_97
*1268 FILLER_43_10
*1269 FILLER_43_105
*1270 FILLER_43_111
*1271 FILLER_43_113
*1272 FILLER_43_125
*1273 FILLER_43_137
*1274 FILLER_43_149
*1275 FILLER_43_161
*1276 FILLER_43_167
*1277 FILLER_43_169
*1278 FILLER_43_17
*1279 FILLER_43_181
*1280 FILLER_43_193
*1281 FILLER_43_205
*1282 FILLER_43_217
*1283 FILLER_43_223
*1284 FILLER_43_225
*1285 FILLER_43_237
*1286 FILLER_43_249
*1287 FILLER_43_261
*1288 FILLER_43_273
*1289 FILLER_43_279
*1290 FILLER_43_281
*1291 FILLER_43_29
*1292 FILLER_43_293
*1293 FILLER_43_3
*1294 FILLER_43_41
*1295 FILLER_43_53
*1296 FILLER_43_57
*1297 FILLER_43_69
*1298 FILLER_43_81
*1299 FILLER_43_93
*1300 FILLER_44_109
*1301 FILLER_44_121
*1302 FILLER_44_133
*1303 FILLER_44_139
*1304 FILLER_44_141
*1305 FILLER_44_15
*1306 FILLER_44_153
*1307 FILLER_44_165
*1308 FILLER_44_177
*1309 FILLER_44_189
*1310 FILLER_44_195
*1311 FILLER_44_197
*1312 FILLER_44_209
*1313 FILLER_44_221
*1314 FILLER_44_233
*1315 FILLER_44_245
*1316 FILLER_44_251
*1317 FILLER_44_253
*1318 FILLER_44_265
*1319 FILLER_44_27
*1320 FILLER_44_277
*1321 FILLER_44_289
*1322 FILLER_44_29
*1323 FILLER_44_297
*1324 FILLER_44_3
*1325 FILLER_44_41
*1326 FILLER_44_53
*1327 FILLER_44_65
*1328 FILLER_44_77
*1329 FILLER_44_83
*1330 FILLER_44_85
*1331 FILLER_44_97
*1332 FILLER_45_105
*1333 FILLER_45_111
*1334 FILLER_45_113
*1335 FILLER_45_125
*1336 FILLER_45_137
*1337 FILLER_45_149
*1338 FILLER_45_15
*1339 FILLER_45_161
*1340 FILLER_45_167
*1341 FILLER_45_169
*1342 FILLER_45_181
*1343 FILLER_45_193
*1344 FILLER_45_205
*1345 FILLER_45_217
*1346 FILLER_45_223
*1347 FILLER_45_225
*1348 FILLER_45_237
*1349 FILLER_45_249
*1350 FILLER_45_261
*1351 FILLER_45_27
*1352 FILLER_45_273
*1353 FILLER_45_279
*1354 FILLER_45_281
*1355 FILLER_45_293
*1356 FILLER_45_3
*1357 FILLER_45_39
*1358 FILLER_45_51
*1359 FILLER_45_55
*1360 FILLER_45_57
*1361 FILLER_45_69
*1362 FILLER_45_81
*1363 FILLER_45_93
*1364 FILLER_46_109
*1365 FILLER_46_121
*1366 FILLER_46_133
*1367 FILLER_46_139
*1368 FILLER_46_141
*1369 FILLER_46_153
*1370 FILLER_46_165
*1371 FILLER_46_177
*1372 FILLER_46_18
*1373 FILLER_46_189
*1374 FILLER_46_195
*1375 FILLER_46_197
*1376 FILLER_46_209
*1377 FILLER_46_221
*1378 FILLER_46_233
*1379 FILLER_46_245
*1380 FILLER_46_251
*1381 FILLER_46_253
*1382 FILLER_46_26
*1383 FILLER_46_265
*1384 FILLER_46_277
*1385 FILLER_46_289
*1386 FILLER_46_29
*1387 FILLER_46_297
*1388 FILLER_46_41
*1389 FILLER_46_53
*1390 FILLER_46_6
*1391 FILLER_46_65
*1392 FILLER_46_77
*1393 FILLER_46_83
*1394 FILLER_46_85
*1395 FILLER_46_97
*1396 FILLER_47_105
*1397 FILLER_47_111
*1398 FILLER_47_113
*1399 FILLER_47_125
*1400 FILLER_47_137
*1401 FILLER_47_149
*1402 FILLER_47_15
*1403 FILLER_47_161
*1404 FILLER_47_167
*1405 FILLER_47_169
*1406 FILLER_47_181
*1407 FILLER_47_193
*1408 FILLER_47_205
*1409 FILLER_47_217
*1410 FILLER_47_223
*1411 FILLER_47_225
*1412 FILLER_47_237
*1413 FILLER_47_249
*1414 FILLER_47_261
*1415 FILLER_47_27
*1416 FILLER_47_273
*1417 FILLER_47_279
*1418 FILLER_47_281
*1419 FILLER_47_293
*1420 FILLER_47_3
*1421 FILLER_47_39
*1422 FILLER_47_51
*1423 FILLER_47_55
*1424 FILLER_47_57
*1425 FILLER_47_69
*1426 FILLER_47_81
*1427 FILLER_47_93
*1428 FILLER_48_109
*1429 FILLER_48_121
*1430 FILLER_48_133
*1431 FILLER_48_139
*1432 FILLER_48_141
*1433 FILLER_48_15
*1434 FILLER_48_153
*1435 FILLER_48_165
*1436 FILLER_48_177
*1437 FILLER_48_189
*1438 FILLER_48_195
*1439 FILLER_48_197
*1440 FILLER_48_209
*1441 FILLER_48_221
*1442 FILLER_48_233
*1443 FILLER_48_245
*1444 FILLER_48_251
*1445 FILLER_48_253
*1446 FILLER_48_265
*1447 FILLER_48_27
*1448 FILLER_48_277
*1449 FILLER_48_289
*1450 FILLER_48_29
*1451 FILLER_48_297
*1452 FILLER_48_3
*1453 FILLER_48_41
*1454 FILLER_48_53
*1455 FILLER_48_65
*1456 FILLER_48_77
*1457 FILLER_48_83
*1458 FILLER_48_85
*1459 FILLER_48_97
*1460 FILLER_49_105
*1461 FILLER_49_111
*1462 FILLER_49_113
*1463 FILLER_49_125
*1464 FILLER_49_137
*1465 FILLER_49_149
*1466 FILLER_49_15
*1467 FILLER_49_161
*1468 FILLER_49_167
*1469 FILLER_49_169
*1470 FILLER_49_181
*1471 FILLER_49_193
*1472 FILLER_49_205
*1473 FILLER_49_217
*1474 FILLER_49_223
*1475 FILLER_49_225
*1476 FILLER_49_237
*1477 FILLER_49_249
*1478 FILLER_49_261
*1479 FILLER_49_27
*1480 FILLER_49_273
*1481 FILLER_49_279
*1482 FILLER_49_281
*1483 FILLER_49_293
*1484 FILLER_49_3
*1485 FILLER_49_39
*1486 FILLER_49_51
*1487 FILLER_49_55
*1488 FILLER_49_57
*1489 FILLER_49_69
*1490 FILLER_49_81
*1491 FILLER_49_93
*1492 FILLER_4_109
*1493 FILLER_4_121
*1494 FILLER_4_133
*1495 FILLER_4_139
*1496 FILLER_4_141
*1497 FILLER_4_153
*1498 FILLER_4_165
*1499 FILLER_4_177
*1500 FILLER_4_189
*1501 FILLER_4_195
*1502 FILLER_4_197
*1503 FILLER_4_209
*1504 FILLER_4_221
*1505 FILLER_4_233
*1506 FILLER_4_24
*1507 FILLER_4_245
*1508 FILLER_4_251
*1509 FILLER_4_253
*1510 FILLER_4_265
*1511 FILLER_4_277
*1512 FILLER_4_289
*1513 FILLER_4_297
*1514 FILLER_4_3
*1515 FILLER_4_45
*1516 FILLER_4_57
*1517 FILLER_4_69
*1518 FILLER_4_81
*1519 FILLER_4_85
*1520 FILLER_4_97
*1521 FILLER_50_109
*1522 FILLER_50_121
*1523 FILLER_50_133
*1524 FILLER_50_139
*1525 FILLER_50_141
*1526 FILLER_50_153
*1527 FILLER_50_165
*1528 FILLER_50_177
*1529 FILLER_50_18
*1530 FILLER_50_189
*1531 FILLER_50_195
*1532 FILLER_50_197
*1533 FILLER_50_209
*1534 FILLER_50_221
*1535 FILLER_50_233
*1536 FILLER_50_245
*1537 FILLER_50_251
*1538 FILLER_50_253
*1539 FILLER_50_26
*1540 FILLER_50_265
*1541 FILLER_50_277
*1542 FILLER_50_289
*1543 FILLER_50_29
*1544 FILLER_50_297
*1545 FILLER_50_41
*1546 FILLER_50_53
*1547 FILLER_50_6
*1548 FILLER_50_65
*1549 FILLER_50_77
*1550 FILLER_50_83
*1551 FILLER_50_85
*1552 FILLER_50_97
*1553 FILLER_51_105
*1554 FILLER_51_111
*1555 FILLER_51_113
*1556 FILLER_51_125
*1557 FILLER_51_137
*1558 FILLER_51_149
*1559 FILLER_51_15
*1560 FILLER_51_161
*1561 FILLER_51_167
*1562 FILLER_51_169
*1563 FILLER_51_181
*1564 FILLER_51_193
*1565 FILLER_51_205
*1566 FILLER_51_217
*1567 FILLER_51_223
*1568 FILLER_51_225
*1569 FILLER_51_237
*1570 FILLER_51_249
*1571 FILLER_51_261
*1572 FILLER_51_27
*1573 FILLER_51_273
*1574 FILLER_51_279
*1575 FILLER_51_281
*1576 FILLER_51_293
*1577 FILLER_51_3
*1578 FILLER_51_39
*1579 FILLER_51_51
*1580 FILLER_51_55
*1581 FILLER_51_57
*1582 FILLER_51_69
*1583 FILLER_51_81
*1584 FILLER_51_93
*1585 FILLER_52_109
*1586 FILLER_52_121
*1587 FILLER_52_133
*1588 FILLER_52_139
*1589 FILLER_52_141
*1590 FILLER_52_15
*1591 FILLER_52_153
*1592 FILLER_52_165
*1593 FILLER_52_177
*1594 FILLER_52_189
*1595 FILLER_52_195
*1596 FILLER_52_197
*1597 FILLER_52_209
*1598 FILLER_52_221