*SPEF "ieee 1481-1999"
*DESIGN "user_module_341277789473735250"
*DATE "11:11:11 Fri 11 11, 1111"
*VENDOR "OpenRCX"
*PROGRAM "Parallel Extraction"
*VERSION "1.0"
*DESIGN_FLOW "NAME_SCOPE LOCAL" "PIN_CAP NONE"
*DIVIDER /
*DELIMITER :
*BUS_DELIMITER []
*T_UNIT 1 NS
*C_UNIT 1 PF
*R_UNIT 1 OHM
*L_UNIT 1 HENRY

*NAME_MAP
*1 io_in[0]
*2 io_in[1]
*3 io_in[2]
*4 io_in[3]
*5 io_in[4]
*6 io_in[5]
*7 io_in[6]
*8 io_in[7]
*9 io_out[0]
*10 io_out[1]
*11 io_out[2]
*12 io_out[3]
*13 io_out[4]
*14 io_out[5]
*15 io_out[6]
*16 io_out[7]
*19 _000_
*20 _001_
*21 _002_
*22 _003_
*23 _004_
*24 _005_
*25 _006_
*26 _007_
*27 _008_
*28 _009_
*29 _010_
*30 _011_
*31 _012_
*32 _013_
*33 _014_
*34 _015_
*35 _016_
*36 _017_
*37 _018_
*38 _019_
*39 _020_
*40 _022_
*41 _023_
*42 _024_
*43 _025_
*44 _026_
*45 _027_
*46 _028_
*47 _029_
*48 _030_
*49 _031_
*50 _032_
*51 _033_
*52 _034_
*53 _035_
*54 _036_
*55 _037_
*56 _038_
*57 _039_
*58 _040_
*59 _041_
*60 _042_
*61 _043_
*62 clknet_0__001_
*63 clknet_0__027_
*64 clknet_0__039_
*65 clknet_0_gate9\.out
*66 clknet_0_io_in[0]
*67 clknet_1_0__leaf__001_
*68 clknet_1_0__leaf__027_
*69 clknet_1_0__leaf__039_
*70 clknet_1_0__leaf_gate9\.out
*71 clknet_1_0__leaf_io_in[0]
*72 clknet_1_1__leaf__001_
*73 clknet_1_1__leaf__027_
*74 clknet_1_1__leaf__039_
*75 clknet_1_1__leaf_gate9\.out
*76 clknet_1_1__leaf_io_in[0]
*77 gate10\.out
*78 gate11\.out
*79 gate12\.out
*80 gate13\.out
*81 gate14\.out
*82 gate2\.out
*83 gate7\.out
*84 gate9\.out
*85 net1
*86 net10
*87 net2
*88 net3
*89 net4
*90 net5
*91 net6
*92 net7
*93 net8
*94 net9
*95 FILLER_0_109
*96 FILLER_0_113
*97 FILLER_0_125
*98 FILLER_0_137
*99 FILLER_0_141
*100 FILLER_0_15
*101 FILLER_0_153
*102 FILLER_0_165
*103 FILLER_0_169
*104 FILLER_0_181
*105 FILLER_0_193
*106 FILLER_0_197
*107 FILLER_0_209
*108 FILLER_0_221
*109 FILLER_0_225
*110 FILLER_0_237
*111 FILLER_0_249
*112 FILLER_0_253
*113 FILLER_0_265
*114 FILLER_0_27
*115 FILLER_0_277
*116 FILLER_0_281
*117 FILLER_0_29
*118 FILLER_0_293
*119 FILLER_0_3
*120 FILLER_0_41
*121 FILLER_0_53
*122 FILLER_0_57
*123 FILLER_0_69
*124 FILLER_0_81
*125 FILLER_0_85
*126 FILLER_0_97
*127 FILLER_10_109
*128 FILLER_10_121
*129 FILLER_10_133
*130 FILLER_10_139
*131 FILLER_10_141
*132 FILLER_10_15
*133 FILLER_10_153
*134 FILLER_10_165
*135 FILLER_10_177
*136 FILLER_10_189
*137 FILLER_10_195
*138 FILLER_10_197
*139 FILLER_10_209
*140 FILLER_10_221
*141 FILLER_10_233
*142 FILLER_10_245
*143 FILLER_10_251
*144 FILLER_10_253
*145 FILLER_10_265
*146 FILLER_10_27
*147 FILLER_10_277
*148 FILLER_10_289
*149 FILLER_10_29
*150 FILLER_10_297
*151 FILLER_10_3
*152 FILLER_10_41
*153 FILLER_10_53
*154 FILLER_10_65
*155 FILLER_10_77
*156 FILLER_10_83
*157 FILLER_10_85
*158 FILLER_10_97
*159 FILLER_11_105
*160 FILLER_11_111
*161 FILLER_11_113
*162 FILLER_11_125
*163 FILLER_11_137
*164 FILLER_11_149
*165 FILLER_11_15
*166 FILLER_11_161
*167 FILLER_11_167
*168 FILLER_11_169
*169 FILLER_11_181
*170 FILLER_11_193
*171 FILLER_11_205
*172 FILLER_11_217
*173 FILLER_11_223
*174 FILLER_11_225
*175 FILLER_11_237
*176 FILLER_11_249
*177 FILLER_11_261
*178 FILLER_11_27
*179 FILLER_11_273
*180 FILLER_11_279
*181 FILLER_11_281
*182 FILLER_11_293
*183 FILLER_11_3
*184 FILLER_11_39
*185 FILLER_11_51
*186 FILLER_11_55
*187 FILLER_11_57
*188 FILLER_11_69
*189 FILLER_11_81
*190 FILLER_11_93
*191 FILLER_12_109
*192 FILLER_12_121
*193 FILLER_12_13
*194 FILLER_12_133
*195 FILLER_12_139
*196 FILLER_12_141
*197 FILLER_12_153
*198 FILLER_12_165
*199 FILLER_12_177
*200 FILLER_12_189
*201 FILLER_12_195
*202 FILLER_12_197
*203 FILLER_12_209
*204 FILLER_12_221
*205 FILLER_12_233
*206 FILLER_12_245
*207 FILLER_12_25
*208 FILLER_12_251
*209 FILLER_12_253
*210 FILLER_12_265
*211 FILLER_12_277
*212 FILLER_12_289
*213 FILLER_12_29
*214 FILLER_12_297
*215 FILLER_12_41
*216 FILLER_12_53
*217 FILLER_12_65
*218 FILLER_12_77
*219 FILLER_12_83
*220 FILLER_12_85
*221 FILLER_12_97
*222 FILLER_13_105
*223 FILLER_13_111
*224 FILLER_13_113
*225 FILLER_13_125
*226 FILLER_13_137
*227 FILLER_13_149
*228 FILLER_13_15
*229 FILLER_13_161
*230 FILLER_13_167
*231 FILLER_13_169
*232 FILLER_13_181
*233 FILLER_13_193
*234 FILLER_13_205
*235 FILLER_13_217
*236 FILLER_13_223
*237 FILLER_13_225
*238 FILLER_13_237
*239 FILLER_13_249
*240 FILLER_13_261
*241 FILLER_13_27
*242 FILLER_13_273
*243 FILLER_13_279
*244 FILLER_13_281
*245 FILLER_13_293
*246 FILLER_13_3
*247 FILLER_13_39
*248 FILLER_13_51
*249 FILLER_13_55
*250 FILLER_13_57
*251 FILLER_13_69
*252 FILLER_13_81
*253 FILLER_13_93
*254 FILLER_14_109
*255 FILLER_14_121
*256 FILLER_14_133
*257 FILLER_14_139
*258 FILLER_14_141
*259 FILLER_14_15
*260 FILLER_14_153
*261 FILLER_14_165
*262 FILLER_14_177
*263 FILLER_14_189
*264 FILLER_14_195
*265 FILLER_14_197
*266 FILLER_14_209
*267 FILLER_14_221
*268 FILLER_14_233
*269 FILLER_14_245
*270 FILLER_14_251
*271 FILLER_14_253
*272 FILLER_14_265
*273 FILLER_14_27
*274 FILLER_14_277
*275 FILLER_14_289
*276 FILLER_14_29
*277 FILLER_14_297
*278 FILLER_14_3
*279 FILLER_14_41
*280 FILLER_14_53
*281 FILLER_14_65
*282 FILLER_14_77
*283 FILLER_14_83
*284 FILLER_14_85
*285 FILLER_14_97
*286 FILLER_15_105
*287 FILLER_15_111
*288 FILLER_15_113
*289 FILLER_15_125
*290 FILLER_15_137
*291 FILLER_15_149
*292 FILLER_15_15
*293 FILLER_15_161
*294 FILLER_15_167
*295 FILLER_15_169
*296 FILLER_15_181
*297 FILLER_15_193
*298 FILLER_15_205
*299 FILLER_15_217
*300 FILLER_15_223
*301 FILLER_15_225
*302 FILLER_15_237
*303 FILLER_15_249
*304 FILLER_15_261
*305 FILLER_15_27
*306 FILLER_15_273
*307 FILLER_15_279
*308 FILLER_15_281
*309 FILLER_15_293
*310 FILLER_15_3
*311 FILLER_15_39
*312 FILLER_15_51
*313 FILLER_15_55
*314 FILLER_15_57
*315 FILLER_15_69
*316 FILLER_15_81
*317 FILLER_15_93
*318 FILLER_16_109
*319 FILLER_16_121
*320 FILLER_16_133
*321 FILLER_16_139
*322 FILLER_16_141
*323 FILLER_16_153
*324 FILLER_16_165
*325 FILLER_16_177
*326 FILLER_16_189
*327 FILLER_16_195
*328 FILLER_16_197
*329 FILLER_16_209
*330 FILLER_16_221
*331 FILLER_16_233
*332 FILLER_16_24
*333 FILLER_16_245
*334 FILLER_16_251
*335 FILLER_16_253
*336 FILLER_16_265
*337 FILLER_16_277
*338 FILLER_16_289
*339 FILLER_16_29
*340 FILLER_16_297
*341 FILLER_16_41
*342 FILLER_16_53
*343 FILLER_16_6
*344 FILLER_16_65
*345 FILLER_16_77
*346 FILLER_16_83
*347 FILLER_16_85
*348 FILLER_16_97
*349 FILLER_17_105
*350 FILLER_17_111
*351 FILLER_17_113
*352 FILLER_17_125
*353 FILLER_17_137
*354 FILLER_17_149
*355 FILLER_17_15
*356 FILLER_17_161
*357 FILLER_17_167
*358 FILLER_17_169
*359 FILLER_17_181
*360 FILLER_17_193
*361 FILLER_17_205
*362 FILLER_17_217
*363 FILLER_17_223
*364 FILLER_17_225
*365 FILLER_17_237
*366 FILLER_17_249
*367 FILLER_17_261
*368 FILLER_17_27
*369 FILLER_17_273
*370 FILLER_17_279
*371 FILLER_17_281
*372 FILLER_17_293
*373 FILLER_17_3
*374 FILLER_17_39
*375 FILLER_17_51
*376 FILLER_17_55
*377 FILLER_17_57
*378 FILLER_17_69
*379 FILLER_17_81
*380 FILLER_17_93
*381 FILLER_18_109
*382 FILLER_18_12
*383 FILLER_18_121
*384 FILLER_18_133
*385 FILLER_18_139
*386 FILLER_18_141
*387 FILLER_18_153
*388 FILLER_18_165
*389 FILLER_18_177
*390 FILLER_18_189
*391 FILLER_18_195
*392 FILLER_18_197
*393 FILLER_18_20
*394 FILLER_18_209
*395 FILLER_18_221
*396 FILLER_18_233
*397 FILLER_18_245
*398 FILLER_18_251
*399 FILLER_18_253
*400 FILLER_18_265
*401 FILLER_18_277
*402 FILLER_18_289
*403 FILLER_18_29
*404 FILLER_18_297
*405 FILLER_18_41
*406 FILLER_18_53
*407 FILLER_18_6
*408 FILLER_18_65
*409 FILLER_18_77
*410 FILLER_18_83
*411 FILLER_18_85
*412 FILLER_18_97
*413 FILLER_19_105
*414 FILLER_19_111
*415 FILLER_19_113
*416 FILLER_19_125
*417 FILLER_19_137
*418 FILLER_19_149
*419 FILLER_19_161
*420 FILLER_19_167
*421 FILLER_19_169
*422 FILLER_19_181
*423 FILLER_19_193
*424 FILLER_19_20
*425 FILLER_19_205
*426 FILLER_19_217
*427 FILLER_19_223
*428 FILLER_19_225
*429 FILLER_19_237
*430 FILLER_19_249
*431 FILLER_19_261
*432 FILLER_19_273
*433 FILLER_19_279
*434 FILLER_19_281
*435 FILLER_19_293
*436 FILLER_19_32
*437 FILLER_19_44
*438 FILLER_19_57
*439 FILLER_19_69
*440 FILLER_19_81
*441 FILLER_19_9
*442 FILLER_19_93
*443 FILLER_1_105
*444 FILLER_1_111
*445 FILLER_1_113
*446 FILLER_1_125
*447 FILLER_1_137
*448 FILLER_1_149
*449 FILLER_1_15
*450 FILLER_1_161
*451 FILLER_1_167
*452 FILLER_1_169
*453 FILLER_1_181
*454 FILLER_1_193
*455 FILLER_1_205
*456 FILLER_1_217
*457 FILLER_1_223
*458 FILLER_1_225
*459 FILLER_1_237
*460 FILLER_1_249
*461 FILLER_1_261
*462 FILLER_1_27
*463 FILLER_1_273
*464 FILLER_1_279
*465 FILLER_1_281
*466 FILLER_1_293
*467 FILLER_1_3
*468 FILLER_1_39
*469 FILLER_1_51
*470 FILLER_1_55
*471 FILLER_1_57
*472 FILLER_1_69
*473 FILLER_1_81
*474 FILLER_1_93
*475 FILLER_20_109
*476 FILLER_20_12
*477 FILLER_20_121
*478 FILLER_20_133
*479 FILLER_20_139
*480 FILLER_20_141
*481 FILLER_20_153
*482 FILLER_20_165
*483 FILLER_20_177
*484 FILLER_20_189
*485 FILLER_20_19
*486 FILLER_20_195
*487 FILLER_20_197
*488 FILLER_20_209
*489 FILLER_20_221
*490 FILLER_20_233
*491 FILLER_20_245
*492 FILLER_20_251
*493 FILLER_20_253
*494 FILLER_20_265
*495 FILLER_20_27
*496 FILLER_20_277
*497 FILLER_20_289
*498 FILLER_20_29
*499 FILLER_20_297
*500 FILLER_20_3
*501 FILLER_20_41
*502 FILLER_20_53
*503 FILLER_20_65
*504 FILLER_20_77
*505 FILLER_20_83
*506 FILLER_20_85
*507 FILLER_20_97
*508 FILLER_21_105
*509 FILLER_21_11
*510 FILLER_21_111
*511 FILLER_21_113
*512 FILLER_21_125
*513 FILLER_21_137
*514 FILLER_21_149
*515 FILLER_21_161
*516 FILLER_21_167
*517 FILLER_21_169
*518 FILLER_21_181
*519 FILLER_21_193
*520 FILLER_21_205
*521 FILLER_21_217
*522 FILLER_21_223
*523 FILLER_21_225
*524 FILLER_21_23
*525 FILLER_21_237
*526 FILLER_21_249
*527 FILLER_21_261
*528 FILLER_21_273
*529 FILLER_21_279
*530 FILLER_21_281
*531 FILLER_21_293
*532 FILLER_21_3
*533 FILLER_21_35
*534 FILLER_21_47
*535 FILLER_21_55
*536 FILLER_21_57
*537 FILLER_21_69
*538 FILLER_21_81
*539 FILLER_21_93
*540 FILLER_22_109
*541 FILLER_22_121
*542 FILLER_22_133
*543 FILLER_22_139
*544 FILLER_22_141
*545 FILLER_22_15
*546 FILLER_22_153
*547 FILLER_22_165
*548 FILLER_22_177
*549 FILLER_22_189
*550 FILLER_22_195
*551 FILLER_22_197
*552 FILLER_22_209
*553 FILLER_22_221
*554 FILLER_22_23
*555 FILLER_22_233
*556 FILLER_22_245
*557 FILLER_22_251
*558 FILLER_22_253
*559 FILLER_22_265
*560 FILLER_22_27
*561 FILLER_22_277
*562 FILLER_22_289
*563 FILLER_22_29
*564 FILLER_22_297
*565 FILLER_22_3
*566 FILLER_22_41
*567 FILLER_22_53
*568 FILLER_22_65
*569 FILLER_22_77
*570 FILLER_22_83
*571 FILLER_22_85
*572 FILLER_22_97
*573 FILLER_23_105
*574 FILLER_23_111
*575 FILLER_23_113
*576 FILLER_23_125
*577 FILLER_23_137
*578 FILLER_23_149
*579 FILLER_23_161
*580 FILLER_23_167
*581 FILLER_23_169
*582 FILLER_23_181
*583 FILLER_23_193
*584 FILLER_23_205
*585 FILLER_23_21
*586 FILLER_23_217
*587 FILLER_23_223
*588 FILLER_23_225
*589 FILLER_23_237
*590 FILLER_23_249
*591 FILLER_23_261
*592 FILLER_23_273
*593 FILLER_23_279
*594 FILLER_23_281
*595 FILLER_23_293
*596 FILLER_23_3
*597 FILLER_23_32
*598 FILLER_23_44
*599 FILLER_23_57
*600 FILLER_23_69
*601 FILLER_23_81
*602 FILLER_23_9
*603 FILLER_23_93
*604 FILLER_24_109
*605 FILLER_24_121
*606 FILLER_24_133
*607 FILLER_24_139
*608 FILLER_24_141
*609 FILLER_24_153
*610 FILLER_24_165
*611 FILLER_24_177
*612 FILLER_24_18
*613 FILLER_24_189
*614 FILLER_24_195
*615 FILLER_24_197
*616 FILLER_24_209
*617 FILLER_24_221
*618 FILLER_24_233
*619 FILLER_24_245
*620 FILLER_24_251
*621 FILLER_24_253
*622 FILLER_24_26
*623 FILLER_24_265
*624 FILLER_24_277
*625 FILLER_24_289
*626 FILLER_24_29
*627 FILLER_24_297
*628 FILLER_24_41
*629 FILLER_24_52
*630 FILLER_24_6
*631 FILLER_24_64
*632 FILLER_24_76
*633 FILLER_24_85
*634 FILLER_24_97
*635 FILLER_25_10
*636 FILLER_25_105
*637 FILLER_25_111
*638 FILLER_25_113
*639 FILLER_25_125
*640 FILLER_25_137
*641 FILLER_25_149
*642 FILLER_25_161
*643 FILLER_25_167
*644 FILLER_25_169
*645 FILLER_25_181
*646 FILLER_25_193
*647 FILLER_25_205
*648 FILLER_25_217
*649 FILLER_25_22
*650 FILLER_25_223
*651 FILLER_25_225
*652 FILLER_25_237
*653 FILLER_25_249
*654 FILLER_25_261
*655 FILLER_25_273
*656 FILLER_25_279
*657 FILLER_25_281
*658 FILLER_25_293
*659 FILLER_25_37
*660 FILLER_25_49
*661 FILLER_25_55
*662 FILLER_25_57
*663 FILLER_25_69
*664 FILLER_25_81
*665 FILLER_25_93
*666 FILLER_26_10
*667 FILLER_26_109
*668 FILLER_26_121
*669 FILLER_26_133
*670 FILLER_26_139
*671 FILLER_26_141
*672 FILLER_26_153
*673 FILLER_26_165
*674 FILLER_26_177
*675 FILLER_26_189
*676 FILLER_26_195
*677 FILLER_26_197
*678 FILLER_26_20
*679 FILLER_26_209
*680 FILLER_26_221
*681 FILLER_26_233
*682 FILLER_26_245
*683 FILLER_26_251
*684 FILLER_26_253
*685 FILLER_26_265
*686 FILLER_26_277
*687 FILLER_26_289
*688 FILLER_26_297
*689 FILLER_26_38
*690 FILLER_26_46
*691 FILLER_26_52
*692 FILLER_26_64
*693 FILLER_26_76
*694 FILLER_26_85
*695 FILLER_26_97
*696 FILLER_27_105
*697 FILLER_27_111
*698 FILLER_27_113
*699 FILLER_27_125
*700 FILLER_27_137
*701 FILLER_27_149
*702 FILLER_27_15
*703 FILLER_27_161
*704 FILLER_27_167
*705 FILLER_27_169
*706 FILLER_27_181
*707 FILLER_27_193
*708 FILLER_27_205
*709 FILLER_27_217
*710 FILLER_27_223
*711 FILLER_27_225
*712 FILLER_27_237
*713 FILLER_27_24
*714 FILLER_27_249
*715 FILLER_27_261
*716 FILLER_27_273
*717 FILLER_27_279
*718 FILLER_27_281
*719 FILLER_27_293
*720 FILLER_27_3
*721 FILLER_27_35
*722 FILLER_27_47
*723 FILLER_27_55
*724 FILLER_27_57
*725 FILLER_27_69
*726 FILLER_27_81
*727 FILLER_27_93
*728 FILLER_28_109
*729 FILLER_28_121
*730 FILLER_28_133
*731 FILLER_28_139
*732 FILLER_28_141
*733 FILLER_28_15
*734 FILLER_28_153
*735 FILLER_28_165
*736 FILLER_28_177
*737 FILLER_28_189
*738 FILLER_28_195
*739 FILLER_28_197
*740 FILLER_28_209
*741 FILLER_28_221
*742 FILLER_28_233
*743 FILLER_28_245
*744 FILLER_28_251
*745 FILLER_28_253
*746 FILLER_28_265
*747 FILLER_28_27
*748 FILLER_28_277
*749 FILLER_28_289
*750 FILLER_28_29
*751 FILLER_28_297
*752 FILLER_28_3
*753 FILLER_28_33
*754 FILLER_28_45
*755 FILLER_28_57
*756 FILLER_28_69
*757 FILLER_28_81
*758 FILLER_28_85
*759 FILLER_28_97
*760 FILLER_29_10
*761 FILLER_29_105
*762 FILLER_29_111
*763 FILLER_29_113
*764 FILLER_29_125
*765 FILLER_29_137
*766 FILLER_29_149
*767 FILLER_29_161
*768 FILLER_29_167
*769 FILLER_29_169
*770 FILLER_29_181
*771 FILLER_29_193
*772 FILLER_29_20
*773 FILLER_29_205
*774 FILLER_29_217
*775 FILLER_29_223
*776 FILLER_29_225
*777 FILLER_29_237
*778 FILLER_29_24
*779 FILLER_29_249
*780 FILLER_29_261
*781 FILLER_29_273
*782 FILLER_29_279
*783 FILLER_29_281
*784 FILLER_29_293
*785 FILLER_29_32
*786 FILLER_29_49
*787 FILLER_29_55
*788 FILLER_29_57
*789 FILLER_29_6
*790 FILLER_29_69
*791 FILLER_29_81
*792 FILLER_29_93
*793 FILLER_2_109
*794 FILLER_2_121
*795 FILLER_2_133
*796 FILLER_2_139
*797 FILLER_2_141
*798 FILLER_2_15
*799 FILLER_2_153
*800 FILLER_2_165
*801 FILLER_2_177
*802 FILLER_2_189
*803 FILLER_2_195
*804 FILLER_2_197
*805 FILLER_2_209
*806 FILLER_2_221
*807 FILLER_2_233
*808 FILLER_2_245
*809 FILLER_2_251
*810 FILLER_2_253
*811 FILLER_2_265
*812 FILLER_2_27
*813 FILLER_2_277
*814 FILLER_2_289
*815 FILLER_2_29
*816 FILLER_2_297
*817 FILLER_2_3
*818 FILLER_2_41
*819 FILLER_2_53
*820 FILLER_2_65
*821 FILLER_2_77
*822 FILLER_2_83
*823 FILLER_2_85
*824 FILLER_2_97
*825 FILLER_30_109
*826 FILLER_30_121
*827 FILLER_30_133
*828 FILLER_30_139
*829 FILLER_30_141
*830 FILLER_30_15
*831 FILLER_30_153
*832 FILLER_30_165
*833 FILLER_30_177
*834 FILLER_30_189
*835 FILLER_30_195
*836 FILLER_30_197
*837 FILLER_30_209
*838 FILLER_30_221
*839 FILLER_30_233
*840 FILLER_30_245
*841 FILLER_30_251
*842 FILLER_30_253
*843 FILLER_30_265
*844 FILLER_30_27
*845 FILLER_30_277
*846 FILLER_30_289
*847 FILLER_30_29
*848 FILLER_30_297
*849 FILLER_30_3
*850 FILLER_30_41
*851 FILLER_30_47
*852 FILLER_30_59
*853 FILLER_30_71
*854 FILLER_30_83
*855 FILLER_30_85
*856 FILLER_30_97
*857 FILLER_31_105
*858 FILLER_31_11
*859 FILLER_31_111
*860 FILLER_31_113
*861 FILLER_31_125
*862 FILLER_31_137
*863 FILLER_31_149
*864 FILLER_31_15
*865 FILLER_31_161
*866 FILLER_31_167
*867 FILLER_31_169
*868 FILLER_31_181
*869 FILLER_31_193
*870 FILLER_31_205
*871 FILLER_31_217
*872 FILLER_31_223
*873 FILLER_31_225
*874 FILLER_31_237
*875 FILLER_31_249
*876 FILLER_31_261
*877 FILLER_31_273
*878 FILLER_31_279
*879 FILLER_31_281
*880 FILLER_31_293
*881 FILLER_31_3
*882 FILLER_31_36
*883 FILLER_31_47
*884 FILLER_31_55
*885 FILLER_31_57
*886 FILLER_31_69
*887 FILLER_31_81
*888 FILLER_31_93
*889 FILLER_32_109
*890 FILLER_32_121
*891 FILLER_32_133
*892 FILLER_32_139
*893 FILLER_32_141
*894 FILLER_32_153
*895 FILLER_32_165
*896 FILLER_32_177
*897 FILLER_32_189
*898 FILLER_32_195
*899 FILLER_32_197
*900 FILLER_32_209
*901 FILLER_32_21
*902 FILLER_32_221
*903 FILLER_32_233
*904 FILLER_32_245
*905 FILLER_32_251
*906 FILLER_32_253
*907 FILLER_32_265
*908 FILLER_32_27
*909 FILLER_32_277
*910 FILLER_32_289
*911 FILLER_32_29
*912 FILLER_32_297
*913 FILLER_32_3
*914 FILLER_32_41
*915 FILLER_32_53
*916 FILLER_32_65
*917 FILLER_32_77
*918 FILLER_32_83
*919 FILLER_32_85
*920 FILLER_32_9
*921 FILLER_32_97
*922 FILLER_33_105
*923 FILLER_33_111
*924 FILLER_33_113
*925 FILLER_33_125
*926 FILLER_33_137
*927 FILLER_33_149
*928 FILLER_33_16
*929 FILLER_33_161
*930 FILLER_33_167
*931 FILLER_33_169
*932 FILLER_33_181
*933 FILLER_33_193
*934 FILLER_33_205
*935 FILLER_33_217
*936 FILLER_33_223
*937 FILLER_33_225
*938 FILLER_33_23
*939 FILLER_33_237
*940 FILLER_33_249
*941 FILLER_33_261
*942 FILLER_33_273
*943 FILLER_33_279
*944 FILLER_33_281
*945 FILLER_33_293
*946 FILLER_33_3
*947 FILLER_33_35
*948 FILLER_33_47
*949 FILLER_33_55
*950 FILLER_33_57
*951 FILLER_33_69
*952 FILLER_33_81
*953 FILLER_33_9
*954 FILLER_33_93
*955 FILLER_34_109
*956 FILLER_34_121
*957 FILLER_34_133
*958 FILLER_34_139
*959 FILLER_34_141
*960 FILLER_34_153
*961 FILLER_34_165
*962 FILLER_34_177
*963 FILLER_34_189
*964 FILLER_34_195
*965 FILLER_34_197
*966 FILLER_34_209
*967 FILLER_34_221
*968 FILLER_34_233
*969 FILLER_34_24
*970 FILLER_34_245
*971 FILLER_34_251
*972 FILLER_34_253
*973 FILLER_34_265
*974 FILLER_34_277
*975 FILLER_34_289
*976 FILLER_34_29
*977 FILLER_34_297
*978 FILLER_34_3
*979 FILLER_34_41
*980 FILLER_34_53
*981 FILLER_34_65
*982 FILLER_34_77
*983 FILLER_34_83
*984 FILLER_34_85
*985 FILLER_34_97
*986 FILLER_35_105
*987 FILLER_35_111
*988 FILLER_35_113
*989 FILLER_35_12
*990 FILLER_35_125
*991 FILLER_35_137
*992 FILLER_35_149
*993 FILLER_35_161
*994 FILLER_35_167
*995 FILLER_35_169
*996 FILLER_35_181
*997 FILLER_35_193
*998 FILLER_35_205
*999 FILLER_35_217
*1000 FILLER_35_223
*1001 FILLER_35_225
*1002 FILLER_35_237
*1003 FILLER_35_249
*1004 FILLER_35_261
*1005 FILLER_35_273
*1006 FILLER_35_279
*1007 FILLER_35_281
*1008 FILLER_35_293
*1009 FILLER_35_3
*1010 FILLER_35_36
*1011 FILLER_35_48
*1012 FILLER_35_57
*1013 FILLER_35_69
*1014 FILLER_35_81
*1015 FILLER_35_93
*1016 FILLER_36_109
*1017 FILLER_36_121
*1018 FILLER_36_133
*1019 FILLER_36_139
*1020 FILLER_36_141
*1021 FILLER_36_153
*1022 FILLER_36_165
*1023 FILLER_36_177
*1024 FILLER_36_189
*1025 FILLER_36_195
*1026 FILLER_36_197
*1027 FILLER_36_209
*1028 FILLER_36_221
*1029 FILLER_36_233
*1030 FILLER_36_24
*1031 FILLER_36_245
*1032 FILLER_36_251
*1033 FILLER_36_253
*1034 FILLER_36_265
*1035 FILLER_36_277
*1036 FILLER_36_289
*1037 FILLER_36_29
*1038 FILLER_36_297
*1039 FILLER_36_3
*1040 FILLER_36_53
*1041 FILLER_36_65
*1042 FILLER_36_77
*1043 FILLER_36_83
*1044 FILLER_36_85
*1045 FILLER_36_97
*1046 FILLER_37_105
*1047 FILLER_37_111
*1048 FILLER_37_113
*1049 FILLER_37_125
*1050 FILLER_37_137
*1051 FILLER_37_14
*1052 FILLER_37_149
*1053 FILLER_37_161
*1054 FILLER_37_167
*1055 FILLER_37_169
*1056 FILLER_37_181
*1057 FILLER_37_193
*1058 FILLER_37_205
*1059 FILLER_37_217
*1060 FILLER_37_223
*1061 FILLER_37_225
*1062 FILLER_37_237
*1063 FILLER_37_249
*1064 FILLER_37_261
*1065 FILLER_37_273
*1066 FILLER_37_279
*1067 FILLER_37_281
*1068 FILLER_37_293
*1069 FILLER_37_3
*1070 FILLER_37_38
*1071 FILLER_37_49
*1072 FILLER_37_55
*1073 FILLER_37_57
*1074 FILLER_37_69
*1075 FILLER_37_81
*1076 FILLER_37_93
*1077 FILLER_38_109
*1078 FILLER_38_121
*1079 FILLER_38_133
*1080 FILLER_38_139
*1081 FILLER_38_141
*1082 FILLER_38_153
*1083 FILLER_38_165
*1084 FILLER_38_177
*1085 FILLER_38_189
*1086 FILLER_38_195
*1087 FILLER_38_197
*1088 FILLER_38_209
*1089 FILLER_38_221
*1090 FILLER_38_233
*1091 FILLER_38_24
*1092 FILLER_38_245
*1093 FILLER_38_251
*1094 FILLER_38_253
*1095 FILLER_38_265
*1096 FILLER_38_277
*1097 FILLER_38_289
*1098 FILLER_38_297
*1099 FILLER_38_3
*1100 FILLER_38_37
*1101 FILLER_38_44
*1102 FILLER_38_56
*1103 FILLER_38_68
*1104 FILLER_38_80
*1105 FILLER_38_85
*1106 FILLER_38_97
*1107 FILLER_39_105
*1108 FILLER_39_111
*1109 FILLER_39_113
*1110 FILLER_39_12
*1111 FILLER_39_125
*1112 FILLER_39_137
*1113 FILLER_39_149
*1114 FILLER_39_161
*1115 FILLER_39_167
*1116 FILLER_39_169
*1117 FILLER_39_181
*1118 FILLER_39_193
*1119 FILLER_39_205
*1120 FILLER_39_217
*1121 FILLER_39_223
*1122 FILLER_39_225
*1123 FILLER_39_237
*1124 FILLER_39_249
*1125 FILLER_39_261
*1126 FILLER_39_273
*1127 FILLER_39_279
*1128 FILLER_39_281
*1129 FILLER_39_293
*1130 FILLER_39_3
*1131 FILLER_39_40
*1132 FILLER_39_48
*1133 FILLER_39_57
*1134 FILLER_39_69
*1135 FILLER_39_81
*1136 FILLER_39_93
*1137 FILLER_3_105
*1138 FILLER_3_111
*1139 FILLER_3_113
*1140 FILLER_3_125
*1141 FILLER_3_137
*1142 FILLER_3_149
*1143 FILLER_3_15
*1144 FILLER_3_161
*1145 FILLER_3_167
*1146 FILLER_3_169
*1147 FILLER_3_181
*1148 FILLER_3_193
*1149 FILLER_3_205
*1150 FILLER_3_217
*1151 FILLER_3_223
*1152 FILLER_3_225
*1153 FILLER_3_237
*1154 FILLER_3_249
*1155 FILLER_3_261
*1156 FILLER_3_27
*1157 FILLER_3_273
*1158 FILLER_3_279
*1159 FILLER_3_281
*1160 FILLER_3_293
*1161 FILLER_3_3
*1162 FILLER_3_39
*1163 FILLER_3_51
*1164 FILLER_3_55
*1165 FILLER_3_57
*1166 FILLER_3_69
*1167 FILLER_3_81
*1168 FILLER_3_93
*1169 FILLER_40_109
*1170 FILLER_40_11
*1171 FILLER_40_121
*1172 FILLER_40_133
*1173 FILLER_40_139
*1174 FILLER_40_141
*1175 FILLER_40_153
*1176 FILLER_40_165
*1177 FILLER_40_177
*1178 FILLER_40_189
*1179 FILLER_40_195
*1180 FILLER_40_197
*1181 FILLER_40_209
*1182 FILLER_40_221
*1183 FILLER_40_23
*1184 FILLER_40_233
*1185 FILLER_40_245
*1186 FILLER_40_251
*1187 FILLER_40_253
*1188 FILLER_40_265
*1189 FILLER_40_27
*1190 FILLER_40_277
*1191 FILLER_40_289
*1192 FILLER_40_297
*1193 FILLER_40_3
*1194 FILLER_40_36
*1195 FILLER_40_45
*1196 FILLER_40_52
*1197 FILLER_40_64
*1198 FILLER_40_76
*1199 FILLER_40_85
*1200 FILLER_40_97
*1201 FILLER_41_105
*1202 FILLER_41_111
*1203 FILLER_41_113
*1204 FILLER_41_12
*1205 FILLER_41_125
*1206 FILLER_41_137
*1207 FILLER_41_149
*1208 FILLER_41_161
*1209 FILLER_41_167
*1210 FILLER_41_169
*1211 FILLER_41_181
*1212 FILLER_41_193
*1213 FILLER_41_205
*1214 FILLER_41_217
*1215 FILLER_41_223
*1216 FILLER_41_225
*1217 FILLER_41_237
*1218 FILLER_41_249
*1219 FILLER_41_261
*1220 FILLER_41_273
*1221 FILLER_41_279
*1222 FILLER_41_281
*1223 FILLER_41_293
*1224 FILLER_41_36
*1225 FILLER_41_44
*1226 FILLER_41_57
*1227 FILLER_41_69
*1228 FILLER_41_81
*1229 FILLER_41_93
*1230 FILLER_42_109
*1231 FILLER_42_121
*1232 FILLER_42_133
*1233 FILLER_42_139
*1234 FILLER_42_141
*1235 FILLER_42_153
*1236 FILLER_42_165
*1237 FILLER_42_177
*1238 FILLER_42_189
*1239 FILLER_42_195
*1240 FILLER_42_197
*1241 FILLER_42_209
*1242 FILLER_42_221
*1243 FILLER_42_233
*1244 FILLER_42_24
*1245 FILLER_42_245
*1246 FILLER_42_251
*1247 FILLER_42_253
*1248 FILLER_42_265
*1249 FILLER_42_277
*1250 FILLER_42_289
*1251 FILLER_42_297
*1252 FILLER_42_3
*1253 FILLER_42_35
*1254 FILLER_42_42
*1255 FILLER_42_54
*1256 FILLER_42_66
*1257 FILLER_42_78
*1258 FILLER_42_85
*1259 FILLER_42_97
*1260 FILLER_43_105
*1261 FILLER_43_111
*1262 FILLER_43_113
*1263 FILLER_43_12
*1264 FILLER_43_125
*1265 FILLER_43_137
*1266 FILLER_43_149
*1267 FILLER_43_161
*1268 FILLER_43_167
*1269 FILLER_43_169
*1270 FILLER_43_181
*1271 FILLER_43_193
*1272 FILLER_43_205
*1273 FILLER_43_217
*1274 FILLER_43_223
*1275 FILLER_43_225
*1276 FILLER_43_237
*1277 FILLER_43_249
*1278 FILLER_43_261
*1279 FILLER_43_273
*1280 FILLER_43_279
*1281 FILLER_43_281
*1282 FILLER_43_293
*1283 FILLER_43_3
*1284 FILLER_43_36
*1285 FILLER_43_48
*1286 FILLER_43_57
*1287 FILLER_43_69
*1288 FILLER_43_81
*1289 FILLER_43_93
*1290 FILLER_44_109
*1291 FILLER_44_121
*1292 FILLER_44_133
*1293 FILLER_44_139
*1294 FILLER_44_141
*1295 FILLER_44_153
*1296 FILLER_44_165
*1297 FILLER_44_177
*1298 FILLER_44_189
*1299 FILLER_44_195
*1300 FILLER_44_197
*1301 FILLER_44_209
*1302 FILLER_44_221
*1303 FILLER_44_233
*1304 FILLER_44_24
*1305 FILLER_44_245
*1306 FILLER_44_251
*1307 FILLER_44_253
*1308 FILLER_44_265
*1309 FILLER_44_277
*1310 FILLER_44_289
*1311 FILLER_44_297
*1312 FILLER_44_3
*1313 FILLER_44_34
*1314 FILLER_44_41
*1315 FILLER_44_48
*1316 FILLER_44_60
*1317 FILLER_44_72
*1318 FILLER_44_85
*1319 FILLER_44_97
*1320 FILLER_45_105
*1321 FILLER_45_111
*1322 FILLER_45_113
*1323 FILLER_45_125
*1324 FILLER_45_137
*1325 FILLER_45_149
*1326 FILLER_45_161
*1327 FILLER_45_167
*1328 FILLER_45_169
*1329 FILLER_45_181
*1330 FILLER_45_193
*1331 FILLER_45_205
*1332 FILLER_45_217
*1333 FILLER_45_223
*1334 FILLER_45_225
*1335 FILLER_45_237
*1336 FILLER_45_249
*1337 FILLER_45_261
*1338 FILLER_45_27
*1339 FILLER_45_273
*1340 FILLER_45_279
*1341 FILLER_45_281
*1342 FILLER_45_293
*1343 FILLER_45_3
*1344 FILLER_45_40
*1345 FILLER_45_52
*1346 FILLER_45_57
*1347 FILLER_45_69
*1348 FILLER_45_81
*1349 FILLER_45_93
*1350 FILLER_46_109
*1351 FILLER_46_121
*1352 FILLER_46_133
*1353 FILLER_46_139
*1354 FILLER_46_141
*1355 FILLER_46_153
*1356 FILLER_46_165
*1357 FILLER_46_177
*1358 FILLER_46_189
*1359 FILLER_46_195
*1360 FILLER_46_197
*1361 FILLER_46_209
*1362 FILLER_46_221
*1363 FILLER_46_233
*1364 FILLER_46_24
*1365 FILLER_46_245
*1366 FILLER_46_251
*1367 FILLER_46_253
*1368 FILLER_46_265
*1369 FILLER_46_277
*1370 FILLER_46_289
*1371 FILLER_46_297
*1372 FILLER_46_3
*1373 FILLER_46_32
*1374 FILLER_46_44
*1375 FILLER_46_56
*1376 FILLER_46_68
*1377 FILLER_46_80
*1378 FILLER_46_85
*1379 FILLER_46_97
*1380 FILLER_47_105
*1381 FILLER_47_111
*1382 FILLER_47_113
*1383 FILLER_47_125
*1384 FILLER_47_137
*1385 FILLER_47_149
*1386 FILLER_47_161
*1387 FILLER_47_167
*1388 FILLER_47_169
*1389 FILLER_47_181
*1390 FILLER_47_193
*1391 FILLER_47_205
*1392 FILLER_47_217
*1393 FILLER_47_223
*1394 FILLER_47_225
*1395 FILLER_47_237
*1396 FILLER_47_249
*1397 FILLER_47_261
*1398 FILLER_47_27
*1399 FILLER_47_273
*1400 FILLER_47_279
*1401 FILLER_47_281
*1402 FILLER_47_293
*1403 FILLER_47_3
*1404 FILLER_47_39
*1405 FILLER_47_51
*1406 FILLER_47_55
*1407 FILLER_47_57
*1408 FILLER_47_69
*1409 FILLER_47_81
*1410 FILLER_47_93
*1411 FILLER_48_10
*1412 FILLER_48_109
*1413 FILLER_48_121
*1414 FILLER_48_133
*1415 FILLER_48_139
*1416 FILLER_48_141
*1417 FILLER_48_153
*1418 FILLER_48_165
*1419 FILLER_48_177
*1420 FILLER_48_18
*1421 FILLER_48_189
*1422 FILLER_48_195
*1423 FILLER_48_197
*1424 FILLER_48_209
*1425 FILLER_48_221
*1426 FILLER_48_233
*1427 FILLER_48_245
*1428 FILLER_48_251
*1429 FILLER_48_253
*1430 FILLER_48_26
*1431 FILLER_48_265
*1432 FILLER_48_277
*1433 FILLER_48_289
*1434 FILLER_48_29
*1435 FILLER_48_297
*1436 FILLER_48_3
*1437 FILLER_48_41
*1438 FILLER_48_53
*1439 FILLER_48_65
*1440 FILLER_48_77
*1441 FILLER_48_83
*1442 FILLER_48_85
*1443 FILLER_48_97
*1444 FILLER_49_105
*1445 FILLER_49_111
*1446 FILLER_49_113
*1447 FILLER_49_125
*1448 FILLER_49_137
*1449 FILLER_49_14
*1450 FILLER_49_149
*1451 FILLER_49_161
*1452 FILLER_49_167
*1453 FILLER_49_169
*1454 FILLER_49_181
*1455 FILLER_49_193
*1456 FILLER_49_205
*1457 FILLER_49_217
*1458 FILLER_49_223
*1459 FILLER_49_225
*1460 FILLER_49_237
*1461 FILLER_49_249
*1462 FILLER_49_26
*1463 FILLER_49_261
*1464 FILLER_49_273
*1465 FILLER_49_279
*1466 FILLER_49_281
*1467 FILLER_49_293
*1468 FILLER_49_3
*1469 FILLER_49_38
*1470 FILLER_49_50
*1471 FILLER_49_57
*1472 FILLER_49_69
*1473 FILLER_49_81
*1474 FILLER_49_9
*1475 FILLER_49_93
*1476 FILLER_4_109
*1477 FILLER_4_121
*1478 FILLER_4_133
*1479 FILLER_4_139
*1480 FILLER_4_141
*1481 FILLER_4_15
*1482 FILLER_4_153
*1483 FILLER_4_165
*1484 FILLER_4_177
*1485 FILLER_4_189
*1486 FILLER_4_195
*1487 FILLER_4_197
*1488 FILLER_4_209
*1489 FILLER_4_221
*1490 FILLER_4_233
*1491 FILLER_4_245
*1492 FILLER_4_251
*1493 FILLER_4_253
*1494 FILLER_4_265
*1495 FILLER_4_27
*1496 FILLER_4_277
*1497 FILLER_4_289
*1498 FILLER_4_29
*1499 FILLER_4_297
*1500 FILLER_4_3
*1501 FILLER_4_41
*1502 FILLER_4_53
*1503 FILLER_4_65
*1504 FILLER_4_77
*1505 FILLER_4_83
*1506 FILLER_4_85
*1507 FILLER_4_97
*1508 FILLER_50_109
*1509 FILLER_50_121
*1510 FILLER_50_133
*1511 FILLER_50_139
*1512 FILLER_50_141
*1513 FILLER_50_15
*1514 FILLER_50_153
*1515 FILLER_50_165
*1516 FILLER_50_177
*1517 FILLER_50_189
*1518 FILLER_50_195
*1519 FILLER_50_197
*1520 FILLER_50_209
*1521 FILLER_50_221
*1522 FILLER_50_233
*1523 FILLER_50_245
*1524 FILLER_50_251
*1525 FILLER_50_253
*1526 FILLER_50_265
*1527 FILLER_50_27
*1528 FILLER_50_277
*1529 FILLER_50_289
*1530 FILLER_50_29
*1531 FILLER_50_297
*1532 FILLER_50_3
*1533 FILLER_50_41
*1534 FILLER_50_53
*1535 FILLER_50_65
*1536 FILLER_50_77
*1537 FILLER_50_83
*1538 FILLER_50_85
*1539 FILLER_50_97
*1540 FILLER_51_105
*1541 FILLER_51_111
*1542 FILLER_51_113
*1543 FILLER_51_125
*1544 FILLER_51_137
*1545 FILLER_51_149
*1546 FILLER_51_15
*1547 FILLER_51_161
*1548 FILLER_51_167
*1549 FILLER_51_169
*1550 FILLER_51_181
*1551 FILLER_51_193
*1552 FILLER_51_205
*1553 FILLER_51_217
*1554 FILLER_51_223
*1555 FILLER_51_225
*1556 FILLER_51_237
*1557 FILLER_51_249
*1558 FILLER_51_261
*1559 FILLER_51_27
*1560 FILLER_51_273
*1561 FILLER_51_279
*1562 FILLER_51_281
*1563 FILLER_51_293
*1564 FILLER_51_3
*1565 FILLER_51_39
*1566 FILLER_51_51
*1567 FILLER_51_55
*1568 FILLER_51_57
*1569 FILLER_51_69
*1570 FILLER_51_81
*1571 FILLER_51_93
*1572 FILLER_52_109
*1573 FILLER_52_121
*1574 FILLER_52_133
*1575 FILLER_52_139
*1576 FILLER_52_141
*1577 FILLER_52_153
*1578 FILLER_52_165
*1579 FILLER_52_177
*1580 FILLER_52_189
*1581 FILLER_52_195
*1582 FILLER_52_197
*1583 FILLER_52_209
*1584 FILLER_52_21
*1585 FILLER_52_221
*1586 FILLER_52_233
*1587 FILLER_52_245
*1588 FILLER_52_251
*1589 FILLER_52_253
*1590 FILLER_52_265
*1591 FILLER_52_27
*1592 FILLER_52_277
*1593 FILLER_52_289
*1594 FILLER_52_29
*1595 FILLER_52_297