*SPEF "ieee 1481-1999"
*DESIGN "user_module_349519263900369490"
*DATE "11:11:11 Fri 11 11, 1111"
*VENDOR "OpenRCX"
*PROGRAM "Parallel Extraction"
*VERSION "1.0"
*DESIGN_FLOW "NAME_SCOPE LOCAL" "PIN_CAP NONE"
*DIVIDER /
*DELIMITER :
*BUS_DELIMITER []
*T_UNIT 1 NS
*C_UNIT 1 PF
*R_UNIT 1 OHM
*L_UNIT 1 HENRY

*NAME_MAP
*1 io_in[0]
*2 io_in[1]
*3 io_in[2]
*4 io_in[3]
*5 io_in[4]
*6 io_in[5]
*7 io_in[6]
*8 io_in[7]
*9 io_out[0]
*10 io_out[1]
*11 io_out[2]
*12 io_out[3]
*13 io_out[4]
*14 io_out[5]
*15 io_out[6]
*16 io_out[7]
*19 _00_
*20 _01_
*21 _02_
*22 _03_
*23 _04_
*24 _05_
*25 _06_
*26 _07_
*27 _08_
*28 _09_
*29 _10_
*30 _11_
*31 _12_
*32 _13_
*33 _14_
*34 _15_
*35 _16_
*36 _17_
*37 _18_
*38 _19_
*39 _21_
*40 _22_
*41 _23_
*42 clknet_0__03_
*43 clknet_0__04_
*44 clknet_0__05_
*45 clknet_0__06_
*46 clknet_0__15_
*47 clknet_0_gate85\.out
*48 clknet_0_io_in[0]
*49 clknet_1_0__leaf__03_
*50 clknet_1_0__leaf__04_
*51 clknet_1_0__leaf__05_
*52 clknet_1_0__leaf__06_
*53 clknet_1_0__leaf__15_
*54 clknet_1_0__leaf_gate85\.out
*55 clknet_1_0__leaf_io_in[0]
*56 clknet_1_1__leaf__03_
*57 clknet_1_1__leaf__04_
*58 clknet_1_1__leaf__05_
*59 clknet_1_1__leaf__06_
*60 clknet_1_1__leaf__15_
*61 clknet_1_1__leaf_gate85\.out
*62 clknet_1_1__leaf_io_in[0]
*63 gate20\.out
*64 gate34\.out
*65 gate45\.out
*66 gate53\.out
*67 gate68\.out
*68 gate74\.out
*69 gate83\.out
*70 gate85\.out
*71 net1
*72 net2
*73 net3
*74 net4
*75 FILLER_0_109
*76 FILLER_0_113
*77 FILLER_0_125
*78 FILLER_0_137
*79 FILLER_0_141
*80 FILLER_0_15
*81 FILLER_0_153
*82 FILLER_0_165
*83 FILLER_0_169
*84 FILLER_0_181
*85 FILLER_0_193
*86 FILLER_0_197
*87 FILLER_0_209
*88 FILLER_0_221
*89 FILLER_0_225
*90 FILLER_0_237
*91 FILLER_0_249
*92 FILLER_0_253
*93 FILLER_0_265
*94 FILLER_0_27
*95 FILLER_0_277
*96 FILLER_0_281
*97 FILLER_0_29
*98 FILLER_0_293
*99 FILLER_0_3
*100 FILLER_0_41
*101 FILLER_0_53
*102 FILLER_0_57
*103 FILLER_0_69
*104 FILLER_0_81
*105 FILLER_0_85
*106 FILLER_0_97
*107 FILLER_10_109
*108 FILLER_10_121
*109 FILLER_10_133
*110 FILLER_10_139
*111 FILLER_10_141
*112 FILLER_10_15
*113 FILLER_10_153
*114 FILLER_10_165
*115 FILLER_10_177
*116 FILLER_10_189
*117 FILLER_10_195
*118 FILLER_10_197
*119 FILLER_10_209
*120 FILLER_10_221
*121 FILLER_10_233
*122 FILLER_10_245
*123 FILLER_10_251
*124 FILLER_10_253
*125 FILLER_10_265
*126 FILLER_10_27
*127 FILLER_10_277
*128 FILLER_10_289
*129 FILLER_10_29
*130 FILLER_10_297
*131 FILLER_10_3
*132 FILLER_10_41
*133 FILLER_10_53
*134 FILLER_10_65
*135 FILLER_10_77
*136 FILLER_10_83
*137 FILLER_10_85
*138 FILLER_10_97
*139 FILLER_11_105
*140 FILLER_11_111
*141 FILLER_11_113
*142 FILLER_11_125
*143 FILLER_11_137
*144 FILLER_11_149
*145 FILLER_11_15
*146 FILLER_11_161
*147 FILLER_11_167
*148 FILLER_11_169
*149 FILLER_11_181
*150 FILLER_11_193
*151 FILLER_11_205
*152 FILLER_11_217
*153 FILLER_11_223
*154 FILLER_11_225
*155 FILLER_11_237
*156 FILLER_11_249
*157 FILLER_11_261
*158 FILLER_11_27
*159 FILLER_11_273
*160 FILLER_11_279
*161 FILLER_11_281
*162 FILLER_11_293
*163 FILLER_11_3
*164 FILLER_11_39
*165 FILLER_11_51
*166 FILLER_11_55
*167 FILLER_11_57
*168 FILLER_11_69
*169 FILLER_11_81
*170 FILLER_11_93
*171 FILLER_12_109
*172 FILLER_12_121
*173 FILLER_12_133
*174 FILLER_12_139
*175 FILLER_12_141
*176 FILLER_12_153
*177 FILLER_12_165
*178 FILLER_12_177
*179 FILLER_12_18
*180 FILLER_12_189
*181 FILLER_12_195
*182 FILLER_12_197
*183 FILLER_12_209
*184 FILLER_12_221
*185 FILLER_12_233
*186 FILLER_12_245
*187 FILLER_12_251
*188 FILLER_12_253
*189 FILLER_12_26
*190 FILLER_12_265
*191 FILLER_12_277
*192 FILLER_12_289
*193 FILLER_12_29
*194 FILLER_12_297
*195 FILLER_12_41
*196 FILLER_12_53
*197 FILLER_12_6
*198 FILLER_12_65
*199 FILLER_12_77
*200 FILLER_12_83
*201 FILLER_12_85
*202 FILLER_12_97
*203 FILLER_13_105
*204 FILLER_13_111
*205 FILLER_13_113
*206 FILLER_13_125
*207 FILLER_13_137
*208 FILLER_13_149
*209 FILLER_13_15
*210 FILLER_13_161
*211 FILLER_13_167
*212 FILLER_13_169
*213 FILLER_13_181
*214 FILLER_13_193
*215 FILLER_13_205
*216 FILLER_13_217
*217 FILLER_13_223
*218 FILLER_13_225
*219 FILLER_13_237
*220 FILLER_13_249
*221 FILLER_13_261
*222 FILLER_13_27
*223 FILLER_13_273
*224 FILLER_13_279
*225 FILLER_13_281
*226 FILLER_13_293
*227 FILLER_13_3
*228 FILLER_13_39
*229 FILLER_13_51
*230 FILLER_13_55
*231 FILLER_13_57
*232 FILLER_13_69
*233 FILLER_13_81
*234 FILLER_13_93
*235 FILLER_14_109
*236 FILLER_14_121
*237 FILLER_14_133
*238 FILLER_14_139
*239 FILLER_14_141
*240 FILLER_14_15
*241 FILLER_14_153
*242 FILLER_14_165
*243 FILLER_14_177
*244 FILLER_14_189
*245 FILLER_14_195
*246 FILLER_14_197
*247 FILLER_14_209
*248 FILLER_14_221
*249 FILLER_14_233
*250 FILLER_14_245
*251 FILLER_14_251
*252 FILLER_14_253
*253 FILLER_14_265
*254 FILLER_14_27
*255 FILLER_14_277
*256 FILLER_14_289
*257 FILLER_14_29
*258 FILLER_14_297
*259 FILLER_14_3
*260 FILLER_14_41
*261 FILLER_14_53
*262 FILLER_14_65
*263 FILLER_14_77
*264 FILLER_14_83
*265 FILLER_14_85
*266 FILLER_14_97
*267 FILLER_15_105
*268 FILLER_15_111
*269 FILLER_15_113
*270 FILLER_15_125
*271 FILLER_15_137
*272 FILLER_15_149
*273 FILLER_15_15
*274 FILLER_15_161
*275 FILLER_15_167
*276 FILLER_15_169
*277 FILLER_15_181
*278 FILLER_15_193
*279 FILLER_15_205
*280 FILLER_15_217
*281 FILLER_15_223
*282 FILLER_15_225
*283 FILLER_15_237
*284 FILLER_15_249
*285 FILLER_15_261
*286 FILLER_15_27
*287 FILLER_15_273
*288 FILLER_15_279
*289 FILLER_15_281
*290 FILLER_15_293
*291 FILLER_15_3
*292 FILLER_15_39
*293 FILLER_15_51
*294 FILLER_15_55
*295 FILLER_15_57
*296 FILLER_15_69
*297 FILLER_15_81
*298 FILLER_15_93
*299 FILLER_16_109
*300 FILLER_16_121
*301 FILLER_16_133
*302 FILLER_16_139
*303 FILLER_16_141
*304 FILLER_16_15
*305 FILLER_16_153
*306 FILLER_16_165
*307 FILLER_16_177
*308 FILLER_16_189
*309 FILLER_16_195
*310 FILLER_16_197
*311 FILLER_16_209
*312 FILLER_16_221
*313 FILLER_16_233
*314 FILLER_16_245
*315 FILLER_16_251
*316 FILLER_16_253
*317 FILLER_16_265
*318 FILLER_16_27
*319 FILLER_16_277
*320 FILLER_16_289
*321 FILLER_16_29
*322 FILLER_16_297
*323 FILLER_16_3
*324 FILLER_16_41
*325 FILLER_16_53
*326 FILLER_16_65
*327 FILLER_16_77
*328 FILLER_16_83
*329 FILLER_16_85
*330 FILLER_16_97
*331 FILLER_17_105
*332 FILLER_17_111
*333 FILLER_17_113
*334 FILLER_17_125
*335 FILLER_17_137
*336 FILLER_17_149
*337 FILLER_17_15
*338 FILLER_17_161
*339 FILLER_17_167
*340 FILLER_17_169
*341 FILLER_17_181
*342 FILLER_17_193
*343 FILLER_17_205
*344 FILLER_17_217
*345 FILLER_17_223
*346 FILLER_17_225
*347 FILLER_17_237
*348 FILLER_17_249
*349 FILLER_17_261
*350 FILLER_17_27
*351 FILLER_17_273
*352 FILLER_17_279
*353 FILLER_17_281
*354 FILLER_17_293
*355 FILLER_17_3
*356 FILLER_17_39
*357 FILLER_17_51
*358 FILLER_17_55
*359 FILLER_17_57
*360 FILLER_17_69
*361 FILLER_17_81
*362 FILLER_17_93
*363 FILLER_18_109
*364 FILLER_18_121
*365 FILLER_18_133
*366 FILLER_18_139
*367 FILLER_18_141
*368 FILLER_18_15
*369 FILLER_18_153
*370 FILLER_18_165
*371 FILLER_18_177
*372 FILLER_18_189
*373 FILLER_18_195
*374 FILLER_18_197
*375 FILLER_18_209
*376 FILLER_18_221
*377 FILLER_18_233
*378 FILLER_18_245
*379 FILLER_18_251
*380 FILLER_18_253
*381 FILLER_18_265
*382 FILLER_18_27
*383 FILLER_18_277
*384 FILLER_18_289
*385 FILLER_18_29
*386 FILLER_18_297
*387 FILLER_18_3
*388 FILLER_18_41
*389 FILLER_18_53
*390 FILLER_18_65
*391 FILLER_18_77
*392 FILLER_18_83
*393 FILLER_18_85
*394 FILLER_18_97
*395 FILLER_19_105
*396 FILLER_19_111
*397 FILLER_19_113
*398 FILLER_19_125
*399 FILLER_19_137
*400 FILLER_19_149
*401 FILLER_19_15
*402 FILLER_19_161
*403 FILLER_19_167
*404 FILLER_19_169
*405 FILLER_19_181
*406 FILLER_19_193
*407 FILLER_19_205
*408 FILLER_19_217
*409 FILLER_19_223
*410 FILLER_19_225
*411 FILLER_19_237
*412 FILLER_19_249
*413 FILLER_19_261
*414 FILLER_19_27
*415 FILLER_19_273
*416 FILLER_19_279
*417 FILLER_19_281
*418 FILLER_19_293
*419 FILLER_19_3
*420 FILLER_19_39
*421 FILLER_19_51
*422 FILLER_19_55
*423 FILLER_19_57
*424 FILLER_19_69
*425 FILLER_19_81
*426 FILLER_19_93
*427 FILLER_1_105
*428 FILLER_1_111
*429 FILLER_1_113
*430 FILLER_1_125
*431 FILLER_1_137
*432 FILLER_1_149
*433 FILLER_1_15
*434 FILLER_1_161
*435 FILLER_1_167
*436 FILLER_1_169
*437 FILLER_1_181
*438 FILLER_1_193
*439 FILLER_1_205
*440 FILLER_1_217
*441 FILLER_1_223
*442 FILLER_1_225
*443 FILLER_1_237
*444 FILLER_1_249
*445 FILLER_1_261
*446 FILLER_1_27
*447 FILLER_1_273
*448 FILLER_1_279
*449 FILLER_1_281
*450 FILLER_1_293
*451 FILLER_1_3
*452 FILLER_1_39
*453 FILLER_1_51
*454 FILLER_1_55
*455 FILLER_1_57
*456 FILLER_1_69
*457 FILLER_1_81
*458 FILLER_1_93
*459 FILLER_20_109
*460 FILLER_20_121
*461 FILLER_20_133
*462 FILLER_20_139
*463 FILLER_20_141
*464 FILLER_20_15
*465 FILLER_20_153
*466 FILLER_20_165
*467 FILLER_20_177
*468 FILLER_20_189
*469 FILLER_20_195
*470 FILLER_20_197
*471 FILLER_20_209
*472 FILLER_20_221
*473 FILLER_20_233
*474 FILLER_20_245
*475 FILLER_20_251
*476 FILLER_20_253
*477 FILLER_20_265
*478 FILLER_20_27
*479 FILLER_20_277
*480 FILLER_20_289
*481 FILLER_20_29
*482 FILLER_20_297
*483 FILLER_20_3
*484 FILLER_20_41
*485 FILLER_20_53
*486 FILLER_20_65
*487 FILLER_20_77
*488 FILLER_20_83
*489 FILLER_20_85
*490 FILLER_20_97
*491 FILLER_21_105
*492 FILLER_21_111
*493 FILLER_21_113
*494 FILLER_21_125
*495 FILLER_21_137
*496 FILLER_21_149
*497 FILLER_21_15
*498 FILLER_21_161
*499 FILLER_21_167
*500 FILLER_21_169
*501 FILLER_21_181
*502 FILLER_21_193
*503 FILLER_21_205
*504 FILLER_21_217
*505 FILLER_21_223
*506 FILLER_21_225
*507 FILLER_21_237
*508 FILLER_21_249
*509 FILLER_21_261
*510 FILLER_21_273
*511 FILLER_21_279
*512 FILLER_21_281
*513 FILLER_21_293
*514 FILLER_21_3
*515 FILLER_21_36
*516 FILLER_21_48
*517 FILLER_21_57
*518 FILLER_21_69
*519 FILLER_21_81
*520 FILLER_21_93
*521 FILLER_22_109
*522 FILLER_22_121
*523 FILLER_22_133
*524 FILLER_22_139
*525 FILLER_22_141
*526 FILLER_22_15
*527 FILLER_22_153
*528 FILLER_22_165
*529 FILLER_22_177
*530 FILLER_22_189
*531 FILLER_22_195
*532 FILLER_22_197
*533 FILLER_22_209
*534 FILLER_22_221
*535 FILLER_22_233
*536 FILLER_22_245
*537 FILLER_22_251
*538 FILLER_22_253
*539 FILLER_22_265
*540 FILLER_22_27
*541 FILLER_22_277
*542 FILLER_22_289
*543 FILLER_22_29
*544 FILLER_22_297
*545 FILLER_22_3
*546 FILLER_22_41
*547 FILLER_22_53
*548 FILLER_22_65
*549 FILLER_22_77
*550 FILLER_22_83
*551 FILLER_22_85
*552 FILLER_22_97
*553 FILLER_23_105
*554 FILLER_23_111
*555 FILLER_23_113
*556 FILLER_23_125
*557 FILLER_23_137
*558 FILLER_23_149
*559 FILLER_23_15
*560 FILLER_23_161
*561 FILLER_23_167
*562 FILLER_23_169
*563 FILLER_23_181
*564 FILLER_23_193
*565 FILLER_23_205
*566 FILLER_23_217
*567 FILLER_23_223
*568 FILLER_23_225
*569 FILLER_23_237
*570 FILLER_23_249
*571 FILLER_23_261
*572 FILLER_23_27
*573 FILLER_23_273
*574 FILLER_23_279
*575 FILLER_23_281
*576 FILLER_23_293
*577 FILLER_23_3
*578 FILLER_23_39
*579 FILLER_23_51
*580 FILLER_23_55
*581 FILLER_23_57
*582 FILLER_23_69
*583 FILLER_23_81
*584 FILLER_23_93
*585 FILLER_24_109
*586 FILLER_24_121
*587 FILLER_24_133
*588 FILLER_24_139
*589 FILLER_24_141
*590 FILLER_24_15
*591 FILLER_24_153
*592 FILLER_24_165
*593 FILLER_24_177
*594 FILLER_24_189
*595 FILLER_24_195
*596 FILLER_24_197
*597 FILLER_24_209
*598 FILLER_24_221
*599 FILLER_24_233
*600 FILLER_24_245
*601 FILLER_24_251
*602 FILLER_24_253
*603 FILLER_24_265
*604 FILLER_24_27
*605 FILLER_24_277
*606 FILLER_24_289
*607 FILLER_24_29
*608 FILLER_24_297
*609 FILLER_24_3
*610 FILLER_24_41
*611 FILLER_24_53
*612 FILLER_24_65
*613 FILLER_24_77
*614 FILLER_24_83
*615 FILLER_24_85
*616 FILLER_24_97
*617 FILLER_25_105
*618 FILLER_25_111
*619 FILLER_25_113
*620 FILLER_25_125
*621 FILLER_25_137
*622 FILLER_25_149
*623 FILLER_25_161
*624 FILLER_25_167
*625 FILLER_25_169
*626 FILLER_25_18
*627 FILLER_25_181
*628 FILLER_25_193
*629 FILLER_25_205
*630 FILLER_25_217
*631 FILLER_25_223
*632 FILLER_25_225
*633 FILLER_25_237
*634 FILLER_25_249
*635 FILLER_25_261
*636 FILLER_25_273
*637 FILLER_25_279
*638 FILLER_25_281
*639 FILLER_25_293
*640 FILLER_25_30
*641 FILLER_25_42
*642 FILLER_25_54
*643 FILLER_25_57
*644 FILLER_25_6
*645 FILLER_25_69
*646 FILLER_25_81
*647 FILLER_25_93
*648 FILLER_26_109
*649 FILLER_26_121
*650 FILLER_26_13
*651 FILLER_26_133
*652 FILLER_26_139
*653 FILLER_26_141
*654 FILLER_26_153
*655 FILLER_26_165
*656 FILLER_26_177
*657 FILLER_26_189
*658 FILLER_26_195
*659 FILLER_26_197
*660 FILLER_26_209
*661 FILLER_26_221
*662 FILLER_26_233
*663 FILLER_26_245
*664 FILLER_26_25
*665 FILLER_26_251
*666 FILLER_26_253
*667 FILLER_26_265
*668 FILLER_26_277
*669 FILLER_26_289
*670 FILLER_26_29
*671 FILLER_26_297
*672 FILLER_26_41
*673 FILLER_26_53
*674 FILLER_26_6
*675 FILLER_26_65
*676 FILLER_26_77
*677 FILLER_26_83
*678 FILLER_26_85
*679 FILLER_26_97
*680 FILLER_27_105
*681 FILLER_27_111
*682 FILLER_27_113
*683 FILLER_27_125
*684 FILLER_27_137
*685 FILLER_27_149
*686 FILLER_27_161
*687 FILLER_27_167
*688 FILLER_27_169
*689 FILLER_27_181
*690 FILLER_27_193
*691 FILLER_27_205
*692 FILLER_27_217
*693 FILLER_27_223
*694 FILLER_27_225
*695 FILLER_27_237
*696 FILLER_27_249
*697 FILLER_27_261
*698 FILLER_27_27
*699 FILLER_27_273
*700 FILLER_27_279
*701 FILLER_27_281
*702 FILLER_27_293
*703 FILLER_27_3
*704 FILLER_27_34
*705 FILLER_27_46
*706 FILLER_27_54
*707 FILLER_27_57
*708 FILLER_27_69
*709 FILLER_27_81
*710 FILLER_27_93
*711 FILLER_28_109
*712 FILLER_28_121
*713 FILLER_28_133
*714 FILLER_28_139
*715 FILLER_28_141
*716 FILLER_28_153
*717 FILLER_28_165
*718 FILLER_28_177
*719 FILLER_28_189
*720 FILLER_28_195
*721 FILLER_28_197
*722 FILLER_28_209
*723 FILLER_28_221
*724 FILLER_28_233
*725 FILLER_28_24
*726 FILLER_28_245
*727 FILLER_28_251
*728 FILLER_28_253
*729 FILLER_28_265
*730 FILLER_28_277
*731 FILLER_28_289
*732 FILLER_28_297
*733 FILLER_28_3
*734 FILLER_28_35
*735 FILLER_28_42
*736 FILLER_28_54
*737 FILLER_28_66
*738 FILLER_28_78
*739 FILLER_28_85
*740 FILLER_28_97
*741 FILLER_29_105
*742 FILLER_29_111
*743 FILLER_29_113
*744 FILLER_29_125
*745 FILLER_29_137
*746 FILLER_29_149
*747 FILLER_29_161
*748 FILLER_29_167
*749 FILLER_29_169
*750 FILLER_29_181
*751 FILLER_29_193
*752 FILLER_29_205
*753 FILLER_29_217
*754 FILLER_29_223
*755 FILLER_29_225
*756 FILLER_29_237
*757 FILLER_29_249
*758 FILLER_29_261
*759 FILLER_29_27
*760 FILLER_29_273
*761 FILLER_29_279
*762 FILLER_29_281
*763 FILLER_29_293
*764 FILLER_29_3
*765 FILLER_29_38
*766 FILLER_29_47
*767 FILLER_29_55
*768 FILLER_29_57
*769 FILLER_29_69
*770 FILLER_29_81
*771 FILLER_29_93
*772 FILLER_2_109
*773 FILLER_2_121
*774 FILLER_2_133
*775 FILLER_2_139
*776 FILLER_2_141
*777 FILLER_2_15
*778 FILLER_2_153
*779 FILLER_2_165
*780 FILLER_2_177
*781 FILLER_2_189
*782 FILLER_2_195
*783 FILLER_2_197
*784 FILLER_2_209
*785 FILLER_2_221
*786 FILLER_2_233
*787 FILLER_2_245
*788 FILLER_2_251
*789 FILLER_2_253
*790 FILLER_2_265
*791 FILLER_2_27
*792 FILLER_2_277
*793 FILLER_2_289
*794 FILLER_2_29
*795 FILLER_2_297
*796 FILLER_2_3
*797 FILLER_2_41
*798 FILLER_2_53
*799 FILLER_2_65
*800 FILLER_2_77
*801 FILLER_2_83
*802 FILLER_2_85
*803 FILLER_2_97
*804 FILLER_30_109
*805 FILLER_30_121
*806 FILLER_30_133
*807 FILLER_30_139
*808 FILLER_30_141
*809 FILLER_30_153
*810 FILLER_30_165
*811 FILLER_30_177
*812 FILLER_30_189
*813 FILLER_30_195
*814 FILLER_30_197
*815 FILLER_30_209
*816 FILLER_30_221
*817 FILLER_30_233
*818 FILLER_30_24
*819 FILLER_30_245
*820 FILLER_30_251
*821 FILLER_30_253
*822 FILLER_30_265
*823 FILLER_30_277
*824 FILLER_30_289
*825 FILLER_30_29
*826 FILLER_30_297
*827 FILLER_30_3
*828 FILLER_30_41
*829 FILLER_30_65
*830 FILLER_30_77
*831 FILLER_30_83
*832 FILLER_30_85
*833 FILLER_30_97
*834 FILLER_31_109
*835 FILLER_31_113
*836 FILLER_31_12
*837 FILLER_31_125
*838 FILLER_31_137
*839 FILLER_31_149
*840 FILLER_31_161
*841 FILLER_31_167
*842 FILLER_31_169
*843 FILLER_31_181
*844 FILLER_31_193
*845 FILLER_31_205
*846 FILLER_31_217
*847 FILLER_31_223
*848 FILLER_31_225
*849 FILLER_31_237
*850 FILLER_31_249
*851 FILLER_31_261
*852 FILLER_31_273
*853 FILLER_31_279
*854 FILLER_31_281
*855 FILLER_31_293
*856 FILLER_31_36
*857 FILLER_31_46
*858 FILLER_31_54
*859 FILLER_31_61
*860 FILLER_31_73
*861 FILLER_31_85
*862 FILLER_31_97
*863 FILLER_32_109
*864 FILLER_32_121
*865 FILLER_32_133
*866 FILLER_32_139
*867 FILLER_32_141
*868 FILLER_32_153
*869 FILLER_32_165
*870 FILLER_32_177
*871 FILLER_32_189
*872 FILLER_32_195
*873 FILLER_32_197
*874 FILLER_32_209
*875 FILLER_32_221
*876 FILLER_32_233
*877 FILLER_32_24
*878 FILLER_32_245
*879 FILLER_32_251
*880 FILLER_32_253
*881 FILLER_32_265
*882 FILLER_32_277
*883 FILLER_32_289
*884 FILLER_32_297
*885 FILLER_32_3
*886 FILLER_32_37
*887 FILLER_32_48
*888 FILLER_32_60
*889 FILLER_32_72
*890 FILLER_32_85
*891 FILLER_32_97
*892 FILLER_33_108
*893 FILLER_33_113
*894 FILLER_33_125
*895 FILLER_33_13
*896 FILLER_33_137
*897 FILLER_33_149
*898 FILLER_33_161
*899 FILLER_33_167
*900 FILLER_33_169
*901 FILLER_33_181
*902 FILLER_33_193
*903 FILLER_33_205
*904 FILLER_33_217
*905 FILLER_33_223
*906 FILLER_33_225
*907 FILLER_33_237
*908 FILLER_33_249
*909 FILLER_33_261
*910 FILLER_33_273
*911 FILLER_33_279
*912 FILLER_33_281
*913 FILLER_33_293
*914 FILLER_33_37
*915 FILLER_33_43
*916 FILLER_33_51
*917 FILLER_33_55
*918 FILLER_33_60
*919 FILLER_33_72
*920 FILLER_33_84
*921 FILLER_33_96
*922 FILLER_34_109
*923 FILLER_34_121
*924 FILLER_34_133
*925 FILLER_34_139
*926 FILLER_34_141
*927 FILLER_34_153
*928 FILLER_34_165
*929 FILLER_34_177
*930 FILLER_34_189
*931 FILLER_34_195
*932 FILLER_34_197
*933 FILLER_34_209
*934 FILLER_34_221
*935 FILLER_34_233
*936 FILLER_34_24
*937 FILLER_34_245
*938 FILLER_34_251
*939 FILLER_34_253
*940 FILLER_34_265
*941 FILLER_34_277
*942 FILLER_34_289
*943 FILLER_34_297
*944 FILLER_34_3
*945 FILLER_34_39
*946 FILLER_34_52
*947 FILLER_34_63
*948 FILLER_34_75
*949 FILLER_34_83
*950 FILLER_34_85
*951 FILLER_34_97
*952 FILLER_35_109
*953 FILLER_35_113
*954 FILLER_35_125
*955 FILLER_35_137
*956 FILLER_35_149
*957 FILLER_35_15
*958 FILLER_35_161
*959 FILLER_35_167
*960 FILLER_35_169
*961 FILLER_35_181
*962 FILLER_35_193
*963 FILLER_35_205
*964 FILLER_35_217
*965 FILLER_35_223
*966 FILLER_35_225
*967 FILLER_35_237
*968 FILLER_35_249
*969 FILLER_35_261
*970 FILLER_35_273
*971 FILLER_35_279
*972 FILLER_35_281
*973 FILLER_35_293
*974 FILLER_35_41
*975 FILLER_35_52
*976 FILLER_35_61
*977 FILLER_35_73
*978 FILLER_35_85
*979 FILLER_35_97
*980 FILLER_36_109
*981 FILLER_36_121
*982 FILLER_36_133
*983 FILLER_36_139
*984 FILLER_36_141
*985 FILLER_36_153
*986 FILLER_36_165
*987 FILLER_36_177
*988 FILLER_36_189
*989 FILLER_36_195
*990 FILLER_36_197
*991 FILLER_36_209
*992 FILLER_36_221
*993 FILLER_36_233
*994 FILLER_36_24
*995 FILLER_36_245
*996 FILLER_36_251
*997 FILLER_36_253
*998 FILLER_36_265
*999 FILLER_36_277
*1000 FILLER_36_289
*1001 FILLER_36_29
*1002 FILLER_36_297
*1003 FILLER_36_3
*1004 FILLER_36_53
*1005 FILLER_36_63
*1006 FILLER_36_70
*1007 FILLER_36_82
*1008 FILLER_36_85
*1009 FILLER_36_97
*1010 FILLER_37_105
*1011 FILLER_37_111
*1012 FILLER_37_113
*1013 FILLER_37_125
*1014 FILLER_37_137
*1015 FILLER_37_149
*1016 FILLER_37_161
*1017 FILLER_37_167
*1018 FILLER_37_169
*1019 FILLER_37_181
*1020 FILLER_37_193
*1021 FILLER_37_205
*1022 FILLER_37_217
*1023 FILLER_37_223
*1024 FILLER_37_225
*1025 FILLER_37_237
*1026 FILLER_37_249
*1027 FILLER_37_261
*1028 FILLER_37_273
*1029 FILLER_37_279
*1030 FILLER_37_28
*1031 FILLER_37_281
*1032 FILLER_37_293
*1033 FILLER_37_3
*1034 FILLER_37_52
*1035 FILLER_37_57
*1036 FILLER_37_69
*1037 FILLER_37_7
*1038 FILLER_37_81
*1039 FILLER_37_93
*1040 FILLER_38_109
*1041 FILLER_38_121
*1042 FILLER_38_133
*1043 FILLER_38_139
*1044 FILLER_38_141
*1045 FILLER_38_153
*1046 FILLER_38_165
*1047 FILLER_38_177
*1048 FILLER_38_189
*1049 FILLER_38_195
*1050 FILLER_38_197
*1051 FILLER_38_209
*1052 FILLER_38_221
*1053 FILLER_38_233
*1054 FILLER_38_24
*1055 FILLER_38_245
*1056 FILLER_38_251
*1057 FILLER_38_253
*1058 FILLER_38_265
*1059 FILLER_38_277
*1060 FILLER_38_289
*1061 FILLER_38_297
*1062 FILLER_38_3
*1063 FILLER_38_32
*1064 FILLER_38_43
*1065 FILLER_38_54
*1066 FILLER_38_66
*1067 FILLER_38_78
*1068 FILLER_38_85
*1069 FILLER_38_97
*1070 FILLER_39_105
*1071 FILLER_39_111
*1072 FILLER_39_113
*1073 FILLER_39_12
*1074 FILLER_39_125
*1075 FILLER_39_137
*1076 FILLER_39_149
*1077 FILLER_39_161
*1078 FILLER_39_167
*1079 FILLER_39_169
*1080 FILLER_39_181
*1081 FILLER_39_193
*1082 FILLER_39_205
*1083 FILLER_39_217
*1084 FILLER_39_223
*1085 FILLER_39_225
*1086 FILLER_39_237
*1087 FILLER_39_249
*1088 FILLER_39_261
*1089 FILLER_39_273
*1090 FILLER_39_279
*1091 FILLER_39_281
*1092 FILLER_39_293
*1093 FILLER_39_36
*1094 FILLER_39_42
*1095 FILLER_39_49
*1096 FILLER_39_55
*1097 FILLER_39_57
*1098 FILLER_39_69
*1099 FILLER_39_81
*1100 FILLER_39_93
*1101 FILLER_3_105
*1102 FILLER_3_111
*1103 FILLER_3_113
*1104 FILLER_3_125
*1105 FILLER_3_137
*1106 FILLER_3_149
*1107 FILLER_3_15
*1108 FILLER_3_161
*1109 FILLER_3_167
*1110 FILLER_3_169
*1111 FILLER_3_181
*1112 FILLER_3_193
*1113 FILLER_3_205
*1114 FILLER_3_217
*1115 FILLER_3_223
*1116 FILLER_3_225
*1117 FILLER_3_237
*1118 FILLER_3_249
*1119 FILLER_3_261
*1120 FILLER_3_27
*1121 FILLER_3_273
*1122 FILLER_3_279
*1123 FILLER_3_281
*1124 FILLER_3_293
*1125 FILLER_3_3
*1126 FILLER_3_39
*1127 FILLER_3_51
*1128 FILLER_3_55
*1129 FILLER_3_57
*1130 FILLER_3_69
*1131 FILLER_3_81
*1132 FILLER_3_93
*1133 FILLER_40_109
*1134 FILLER_40_121
*1135 FILLER_40_133
*1136 FILLER_40_139
*1137 FILLER_40_141
*1138 FILLER_40_153
*1139 FILLER_40_165
*1140 FILLER_40_177
*1141 FILLER_40_189
*1142 FILLER_40_195
*1143 FILLER_40_197
*1144 FILLER_40_209
*1145 FILLER_40_221
*1146 FILLER_40_233
*1147 FILLER_40_24
*1148 FILLER_40_245
*1149 FILLER_40_251
*1150 FILLER_40_253
*1151 FILLER_40_265
*1152 FILLER_40_277
*1153 FILLER_40_289
*1154 FILLER_40_297
*1155 FILLER_40_3
*1156 FILLER_40_35
*1157 FILLER_40_44
*1158 FILLER_40_56
*1159 FILLER_40_68
*1160 FILLER_40_80
*1161 FILLER_40_85
*1162 FILLER_40_97
*1163 FILLER_41_10
*1164 FILLER_41_105
*1165 FILLER_41_111
*1166 FILLER_41_113
*1167 FILLER_41_125
*1168 FILLER_41_137
*1169 FILLER_41_149
*1170 FILLER_41_161
*1171 FILLER_41_167
*1172 FILLER_41_169
*1173 FILLER_41_181
*1174 FILLER_41_193
*1175 FILLER_41_205
*1176 FILLER_41_217
*1177 FILLER_41_223
*1178 FILLER_41_225
*1179 FILLER_41_237
*1180 FILLER_41_249
*1181 FILLER_41_261
*1182 FILLER_41_273
*1183 FILLER_41_279
*1184 FILLER_41_281
*1185 FILLER_41_293
*1186 FILLER_41_38
*1187 FILLER_41_45
*1188 FILLER_41_53
*1189 FILLER_41_57
*1190 FILLER_41_69
*1191 FILLER_41_81
*1192 FILLER_41_93
*1193 FILLER_42_109
*1194 FILLER_42_121
*1195 FILLER_42_133
*1196 FILLER_42_139
*1197 FILLER_42_141
*1198 FILLER_42_153
*1199 FILLER_42_165
*1200 FILLER_42_177
*1201 FILLER_42_189
*1202 FILLER_42_195
*1203 FILLER_42_197
*1204 FILLER_42_209
*1205 FILLER_42_221
*1206 FILLER_42_233
*1207 FILLER_42_24
*1208 FILLER_42_245
*1209 FILLER_42_251
*1210 FILLER_42_253
*1211 FILLER_42_265
*1212 FILLER_42_277
*1213 FILLER_42_289
*1214 FILLER_42_297
*1215 FILLER_42_3
*1216 FILLER_42_33
*1217 FILLER_42_45
*1218 FILLER_42_57
*1219 FILLER_42_69
*1220 FILLER_42_81
*1221 FILLER_42_85
*1222 FILLER_42_97
*1223 FILLER_43_105
*1224 FILLER_43_111
*1225 FILLER_43_113
*1226 FILLER_43_125
*1227 FILLER_43_137
*1228 FILLER_43_149
*1229 FILLER_43_161
*1230 FILLER_43_167
*1231 FILLER_43_169
*1232 FILLER_43_181
*1233 FILLER_43_193
*1234 FILLER_43_205
*1235 FILLER_43_217
*1236 FILLER_43_223
*1237 FILLER_43_225
*1238 FILLER_43_237
*1239 FILLER_43_249
*1240 FILLER_43_261
*1241 FILLER_43_27
*1242 FILLER_43_273
*1243 FILLER_43_279
*1244 FILLER_43_281
*1245 FILLER_43_293
*1246 FILLER_43_3
*1247 FILLER_43_39
*1248 FILLER_43_51
*1249 FILLER_43_55
*1250 FILLER_43_57
*1251 FILLER_43_69
*1252 FILLER_43_81
*1253 FILLER_43_93
*1254 FILLER_44_109
*1255 FILLER_44_11
*1256 FILLER_44_121
*1257 FILLER_44_133
*1258 FILLER_44_139
*1259 FILLER_44_141
*1260 FILLER_44_153
*1261 FILLER_44_165
*1262 FILLER_44_177
*1263 FILLER_44_189
*1264 FILLER_44_195
*1265 FILLER_44_197
*1266 FILLER_44_209
*1267 FILLER_44_221
*1268 FILLER_44_23
*1269 FILLER_44_233
*1270 FILLER_44_245
*1271 FILLER_44_251
*1272 FILLER_44_253
*1273 FILLER_44_265
*1274 FILLER_44_27
*1275 FILLER_44_277
*1276 FILLER_44_289
*1277 FILLER_44_29
*1278 FILLER_44_297
*1279 FILLER_44_3
*1280 FILLER_44_41
*1281 FILLER_44_53
*1282 FILLER_44_65
*1283 FILLER_44_77
*1284 FILLER_44_83
*1285 FILLER_44_85
*1286 FILLER_44_97
*1287 FILLER_45_105
*1288 FILLER_45_111
*1289 FILLER_45_113
*1290 FILLER_45_125
*1291 FILLER_45_137
*1292 FILLER_45_149
*1293 FILLER_45_15
*1294 FILLER_45_161
*1295 FILLER_45_167
*1296 FILLER_45_169
*1297 FILLER_45_181
*1298 FILLER_45_193
*1299 FILLER_45_205
*1300 FILLER_45_217
*1301 FILLER_45_223
*1302 FILLER_45_225
*1303 FILLER_45_237
*1304 FILLER_45_249
*1305 FILLER_45_261
*1306 FILLER_45_27
*1307 FILLER_45_273
*1308 FILLER_45_279
*1309 FILLER_45_281
*1310 FILLER_45_293
*1311 FILLER_45_39
*1312 FILLER_45_51
*1313 FILLER_45_55
*1314 FILLER_45_57
*1315 FILLER_45_69
*1316 FILLER_45_7
*1317 FILLER_45_81
*1318 FILLER_45_93
*1319 FILLER_46_109
*1320 FILLER_46_121
*1321 FILLER_46_133
*1322 FILLER_46_139
*1323 FILLER_46_141
*1324 FILLER_46_15
*1325 FILLER_46_153
*1326 FILLER_46_165
*1327 FILLER_46_177
*1328 FILLER_46_189
*1329 FILLER_46_195
*1330 FILLER_46_197
*1331 FILLER_46_209
*1332 FILLER_46_221
*1333 FILLER_46_233
*1334 FILLER_46_245
*1335 FILLER_46_251
*1336 FILLER_46_253
*1337 FILLER_46_265
*1338 FILLER_46_27
*1339 FILLER_46_277
*1340 FILLER_46_289
*1341 FILLER_46_29
*1342 FILLER_46_297
*1343 FILLER_46_3
*1344 FILLER_46_41
*1345 FILLER_46_53
*1346 FILLER_46_65
*1347 FILLER_46_77
*1348 FILLER_46_83
*1349 FILLER_46_85
*1350 FILLER_46_97
*1351 FILLER_47_105
*1352 FILLER_47_111
*1353 FILLER_47_113
*1354 FILLER_47_125
*1355 FILLER_47_137
*1356 FILLER_47_149
*1357 FILLER_47_161
*1358 FILLER_47_167
*1359 FILLER_47_169
*1360 FILLER_47_181
*1361 FILLER_47_19
*1362 FILLER_47_193
*1363 FILLER_47_205
*1364 FILLER_47_217
*1365 FILLER_47_223
*1366 FILLER_47_225
*1367 FILLER_47_237
*1368 FILLER_47_249
*1369 FILLER_47_261
*1370 FILLER_47_273
*1371 FILLER_47_279
*1372 FILLER_47_281
*1373 FILLER_47_293
*1374 FILLER_47_31
*1375 FILLER_47_43
*1376 FILLER_47_55
*1377 FILLER_47_57
*1378 FILLER_47_69
*1379 FILLER_47_7
*1380 FILLER_47_81
*1381 FILLER_47_93
*1382 FILLER_48_109
*1383 FILLER_48_121
*1384 FILLER_48_133
*1385 FILLER_48_139
*1386 FILLER_48_141
*1387 FILLER_48_15
*1388 FILLER_48_153
*1389 FILLER_48_165
*1390 FILLER_48_177
*1391 FILLER_48_189
*1392 FILLER_48_195
*1393 FILLER_48_197
*1394 FILLER_48_209
*1395 FILLER_48_221
*1396 FILLER_48_233
*1397 FILLER_48_245
*1398 FILLER_48_251
*1399 FILLER_48_253
*1400 FILLER_48_265
*1401 FILLER_48_27
*1402 FILLER_48_277
*1403 FILLER_48_289
*1404 FILLER_48_29
*1405 FILLER_48_297
*1406 FILLER_48_3
*1407 FILLER_48_41
*1408 FILLER_48_53
*1409 FILLER_48_65
*1410 FILLER_48_77
*1411 FILLER_48_83
*1412 FILLER_48_85
*1413 FILLER_48_97
*1414 FILLER_49_105
*1415 FILLER_49_111
*1416 FILLER_49_113
*1417 FILLER_49_125
*1418 FILLER_49_137
*1419 FILLER_49_149
*1420 FILLER_49_161
*1421 FILLER_49_167
*1422 FILLER_49_169
*1423 FILLER_49_181
*1424 FILLER_49_19
*1425 FILLER_49_193
*1426 FILLER_49_205
*1427 FILLER_49_217
*1428 FILLER_49_223
*1429 FILLER_49_225
*1430 FILLER_49_237
*1431 FILLER_49_249
*1432 FILLER_49_261
*1433 FILLER_49_273
*1434 FILLER_49_279
*1435 FILLER_49_281
*1436 FILLER_49_293
*1437 FILLER_49_31
*1438 FILLER_49_43
*1439 FILLER_49_55
*1440 FILLER_49_57
*1441 FILLER_49_69
*1442 FILLER_49_7
*1443 FILLER_49_81
*1444 FILLER_49_93
*1445 FILLER_4_109
*1446 FILLER_4_121
*1447 FILLER_4_133
*1448 FILLER_4_139
*1449 FILLER_4_141
*1450 FILLER_4_15
*1451 FILLER_4_153
*1452 FILLER_4_165
*1453 FILLER_4_177
*1454 FILLER_4_189
*1455 FILLER_4_195
*1456 FILLER_4_197
*1457 FILLER_4_209
*1458 FILLER_4_221
*1459 FILLER_4_233
*1460 FILLER_4_245
*1461 FILLER_4_251
*1462 FILLER_4_253
*1463 FILLER_4_265
*1464 FILLER_4_27
*1465 FILLER_4_277
*1466 FILLER_4_289
*1467 FILLER_4_29
*1468 FILLER_4_297
*1469 FILLER_4_3
*1470 FILLER_4_41
*1471 FILLER_4_53
*1472 FILLER_4_65
*1473 FILLER_4_77
*1474 FILLER_4_83
*1475 FILLER_4_85
*1476 FILLER_4_97
*1477 FILLER_50_109
*1478 FILLER_50_121
*1479 FILLER_50_133
*1480 FILLER_50_139
*1481 FILLER_50_141
*1482 FILLER_50_15
*1483 FILLER_50_153
*1484 FILLER_50_165
*1485 FILLER_50_177
*1486 FILLER_50_189
*1487 FILLER_50_195
*1488 FILLER_50_197
*1489 FILLER_50_209
*1490 FILLER_50_221
*1491 FILLER_50_233
*1492 FILLER_50_245
*1493 FILLER_50_251
*1494 FILLER_50_253
*1495 FILLER_50_265
*1496 FILLER_50_27
*1497 FILLER_50_277
*1498 FILLER_50_289
*1499 FILLER_50_29
*1500 FILLER_50_297
*1501 FILLER_50_3
*1502 FILLER_50_41
*1503 FILLER_50_53
*1504 FILLER_50_65
*1505 FILLER_50_77
*1506 FILLER_50_83
*1507 FILLER_50_85
*1508 FILLER_50_97
*1509 FILLER_51_105
*1510 FILLER_51_111
*1511 FILLER_51_113
*1512 FILLER_51_125
*1513 FILLER_51_137
*1514 FILLER_51_149
*1515 FILLER_51_15
*1516 FILLER_51_161
*1517 FILLER_51_167
*1518 FILLER_51_169
*1519 FILLER_51_181
*1520 FILLER_51_193
*1521 FILLER_51_205
*1522 FILLER_51_217
*1523 FILLER_51_223
*1524 FILLER_51_225
*1525 FILLER_51_237
*1526 FILLER_51_249
*1527 FILLER_51_261
*1528 FILLER_51_27
*1529 FILLER_51_273
*1530 FILLER_51_279
*1531 FILLER_51_281
*1532 FILLER_51_293
*1533 FILLER_51_3
*1534 FILLER_51_39
*1535 FILLER_51_51
*1536 FILLER_51_55
*1537 FILLER_51_57
*1538 FILLER_51_69
*1539 FILLER_51_81
*1540 FILLER_51_93
*1541 FILLER_52_109
*1542 FILLER_52_121
*1543 FILLER_52_133
*1544 FILLER_52_139
*1545 FILLER_52_141
*1546 FILLER_52_15
*1547 FILLER_52_153
*1548 FILLER_52_165
*1549 FILLER_52_177
*1550 FILLER_52_189
*1551 FILLER_52_195
*1552 FILLER_52_197
*1553 FILLER_52_209
*1554 FILLER_52_221
*1555 FILLER_52_233
*1556 FILLER_52_245
*1557 FILLER_52_251
*1558 FILLER_52_253
*1559 FILLER_52_265
*1560 FILLER_52_27
*1561 FILLER_52_277
*1562 FILLER_52_289
*1563 FILLER_52_29
*1564 FILLER_52_297
*1565 FILLER_52_3
*1566 FILLER_52_41
*1567 FILLER_52_53
*1568 FILLER_52_65
*1569 FILLER_52_77
*1570 FILLER_52_83
*1571 FILLER_52_85
*1572 FILLER_52_97
*1573 FILLER_53_105
*1574 FILLER_53_111
*1575 FILLER_53_113
*1576 FILLER_53_125
*1577 FILLER_53_137
*1578 FILLER_53_149
*1579 FILLER_53_15
*1580 FILLER_53_161
*1581 FILLER_53_167
*1582 FILLER_53_169
*1583 FILLER_53_181
*1584 FILLER_53_193