*SPEF "ieee 1481-1999"
*DESIGN "user_module_339688086163161683"
*DATE "11:11:11 Fri 11 11, 1111"
*VENDOR "OpenRCX"
*PROGRAM "Parallel Extraction"
*VERSION "1.0"
*DESIGN_FLOW "NAME_SCOPE LOCAL" "PIN_CAP NONE"
*DIVIDER /
*DELIMITER :
*BUS_DELIMITER []
*T_UNIT 1 NS
*C_UNIT 1 PF
*R_UNIT 1 OHM
*L_UNIT 1 HENRY

*NAME_MAP
*1 io_in[0]
*2 io_in[1]
*3 io_in[2]
*4 io_in[3]
*5 io_in[4]
*6 io_in[5]
*7 io_in[6]
*8 io_in[7]
*9 io_out[0]
*10 io_out[1]
*11 io_out[2]
*12 io_out[3]
*13 net6
*14 net4
*15 io_out[6]
*16 net5
*19 _00_
*20 clknet_0_gate11\.out
*21 clknet_1_0__leaf_gate11\.out
*22 clknet_1_1__leaf_gate11\.out
*23 gate11\.out
*24 net1
*25 net2
*26 net3
*27 FILLER_0_109
*28 FILLER_0_113
*29 FILLER_0_125
*30 FILLER_0_137
*31 FILLER_0_141
*32 FILLER_0_15
*33 FILLER_0_153
*34 FILLER_0_165
*35 FILLER_0_169
*36 FILLER_0_181
*37 FILLER_0_193
*38 FILLER_0_197
*39 FILLER_0_209
*40 FILLER_0_221
*41 FILLER_0_225
*42 FILLER_0_237
*43 FILLER_0_249
*44 FILLER_0_253
*45 FILLER_0_265
*46 FILLER_0_27
*47 FILLER_0_277
*48 FILLER_0_281
*49 FILLER_0_29
*50 FILLER_0_293
*51 FILLER_0_3
*52 FILLER_0_41
*53 FILLER_0_53
*54 FILLER_0_57
*55 FILLER_0_69
*56 FILLER_0_81
*57 FILLER_0_85
*58 FILLER_0_97
*59 FILLER_10_109
*60 FILLER_10_11
*61 FILLER_10_121
*62 FILLER_10_133
*63 FILLER_10_139
*64 FILLER_10_141
*65 FILLER_10_153
*66 FILLER_10_165
*67 FILLER_10_177
*68 FILLER_10_189
*69 FILLER_10_195
*70 FILLER_10_197
*71 FILLER_10_209
*72 FILLER_10_221
*73 FILLER_10_23
*74 FILLER_10_233
*75 FILLER_10_245
*76 FILLER_10_251
*77 FILLER_10_253
*78 FILLER_10_265
*79 FILLER_10_27
*80 FILLER_10_277
*81 FILLER_10_289
*82 FILLER_10_29
*83 FILLER_10_297
*84 FILLER_10_41
*85 FILLER_10_53
*86 FILLER_10_65
*87 FILLER_10_77
*88 FILLER_10_83
*89 FILLER_10_85
*90 FILLER_10_97
*91 FILLER_11_105
*92 FILLER_11_111
*93 FILLER_11_113
*94 FILLER_11_125
*95 FILLER_11_137
*96 FILLER_11_149
*97 FILLER_11_15
*98 FILLER_11_161
*99 FILLER_11_167
*100 FILLER_11_169
*101 FILLER_11_181
*102 FILLER_11_193
*103 FILLER_11_205
*104 FILLER_11_217
*105 FILLER_11_223
*106 FILLER_11_225
*107 FILLER_11_237
*108 FILLER_11_249
*109 FILLER_11_261
*110 FILLER_11_27
*111 FILLER_11_273
*112 FILLER_11_279
*113 FILLER_11_281
*114 FILLER_11_293
*115 FILLER_11_3
*116 FILLER_11_39
*117 FILLER_11_51
*118 FILLER_11_55
*119 FILLER_11_57
*120 FILLER_11_69
*121 FILLER_11_81
*122 FILLER_11_93
*123 FILLER_12_109
*124 FILLER_12_121
*125 FILLER_12_133
*126 FILLER_12_139
*127 FILLER_12_141
*128 FILLER_12_153
*129 FILLER_12_165
*130 FILLER_12_177
*131 FILLER_12_18
*132 FILLER_12_189
*133 FILLER_12_195
*134 FILLER_12_197
*135 FILLER_12_209
*136 FILLER_12_221
*137 FILLER_12_233
*138 FILLER_12_245
*139 FILLER_12_251
*140 FILLER_12_253
*141 FILLER_12_26
*142 FILLER_12_265
*143 FILLER_12_277
*144 FILLER_12_289
*145 FILLER_12_29
*146 FILLER_12_297
*147 FILLER_12_41
*148 FILLER_12_53
*149 FILLER_12_6
*150 FILLER_12_65
*151 FILLER_12_77
*152 FILLER_12_83
*153 FILLER_12_85
*154 FILLER_12_97
*155 FILLER_13_105
*156 FILLER_13_111
*157 FILLER_13_113
*158 FILLER_13_125
*159 FILLER_13_137
*160 FILLER_13_149
*161 FILLER_13_15
*162 FILLER_13_161
*163 FILLER_13_167
*164 FILLER_13_169
*165 FILLER_13_181
*166 FILLER_13_193
*167 FILLER_13_205
*168 FILLER_13_217
*169 FILLER_13_223
*170 FILLER_13_225
*171 FILLER_13_237
*172 FILLER_13_249
*173 FILLER_13_261
*174 FILLER_13_27
*175 FILLER_13_273
*176 FILLER_13_279
*177 FILLER_13_281
*178 FILLER_13_293
*179 FILLER_13_3
*180 FILLER_13_39
*181 FILLER_13_51
*182 FILLER_13_55
*183 FILLER_13_57
*184 FILLER_13_69
*185 FILLER_13_81
*186 FILLER_13_93
*187 FILLER_14_109
*188 FILLER_14_121
*189 FILLER_14_133
*190 FILLER_14_139
*191 FILLER_14_141
*192 FILLER_14_15
*193 FILLER_14_153
*194 FILLER_14_165
*195 FILLER_14_177
*196 FILLER_14_189
*197 FILLER_14_195
*198 FILLER_14_197
*199 FILLER_14_209
*200 FILLER_14_221
*201 FILLER_14_233
*202 FILLER_14_245
*203 FILLER_14_251
*204 FILLER_14_253
*205 FILLER_14_265
*206 FILLER_14_27
*207 FILLER_14_277
*208 FILLER_14_289
*209 FILLER_14_29
*210 FILLER_14_297
*211 FILLER_14_3
*212 FILLER_14_41
*213 FILLER_14_53
*214 FILLER_14_65
*215 FILLER_14_77
*216 FILLER_14_83
*217 FILLER_14_85
*218 FILLER_14_97
*219 FILLER_15_105
*220 FILLER_15_111
*221 FILLER_15_113
*222 FILLER_15_125
*223 FILLER_15_137
*224 FILLER_15_149
*225 FILLER_15_15
*226 FILLER_15_161
*227 FILLER_15_167
*228 FILLER_15_169
*229 FILLER_15_181
*230 FILLER_15_193
*231 FILLER_15_205
*232 FILLER_15_217
*233 FILLER_15_223
*234 FILLER_15_225
*235 FILLER_15_237
*236 FILLER_15_249
*237 FILLER_15_261
*238 FILLER_15_27
*239 FILLER_15_273
*240 FILLER_15_279
*241 FILLER_15_281
*242 FILLER_15_293
*243 FILLER_15_3
*244 FILLER_15_39
*245 FILLER_15_51
*246 FILLER_15_55
*247 FILLER_15_57
*248 FILLER_15_69
*249 FILLER_15_81
*250 FILLER_15_93
*251 FILLER_16_109
*252 FILLER_16_121
*253 FILLER_16_133
*254 FILLER_16_139
*255 FILLER_16_141
*256 FILLER_16_15
*257 FILLER_16_153
*258 FILLER_16_165
*259 FILLER_16_177
*260 FILLER_16_189
*261 FILLER_16_195
*262 FILLER_16_197
*263 FILLER_16_209
*264 FILLER_16_221
*265 FILLER_16_233
*266 FILLER_16_245
*267 FILLER_16_251
*268 FILLER_16_253
*269 FILLER_16_265
*270 FILLER_16_27
*271 FILLER_16_277
*272 FILLER_16_289
*273 FILLER_16_29
*274 FILLER_16_297
*275 FILLER_16_3
*276 FILLER_16_41
*277 FILLER_16_53
*278 FILLER_16_65
*279 FILLER_16_77
*280 FILLER_16_83
*281 FILLER_16_85
*282 FILLER_16_97
*283 FILLER_17_105
*284 FILLER_17_111
*285 FILLER_17_113
*286 FILLER_17_125
*287 FILLER_17_137
*288 FILLER_17_149
*289 FILLER_17_15
*290 FILLER_17_161
*291 FILLER_17_167
*292 FILLER_17_169
*293 FILLER_17_181
*294 FILLER_17_193
*295 FILLER_17_205
*296 FILLER_17_217
*297 FILLER_17_223
*298 FILLER_17_225
*299 FILLER_17_237
*300 FILLER_17_249
*301 FILLER_17_261
*302 FILLER_17_27
*303 FILLER_17_273
*304 FILLER_17_279
*305 FILLER_17_281
*306 FILLER_17_293
*307 FILLER_17_3
*308 FILLER_17_39
*309 FILLER_17_51
*310 FILLER_17_55
*311 FILLER_17_57
*312 FILLER_17_69
*313 FILLER_17_81
*314 FILLER_17_93
*315 FILLER_18_109
*316 FILLER_18_121
*317 FILLER_18_133
*318 FILLER_18_139
*319 FILLER_18_141
*320 FILLER_18_15
*321 FILLER_18_153
*322 FILLER_18_165
*323 FILLER_18_177
*324 FILLER_18_189
*325 FILLER_18_195
*326 FILLER_18_197
*327 FILLER_18_209
*328 FILLER_18_221
*329 FILLER_18_233
*330 FILLER_18_245
*331 FILLER_18_251
*332 FILLER_18_253
*333 FILLER_18_265
*334 FILLER_18_27
*335 FILLER_18_277
*336 FILLER_18_289
*337 FILLER_18_29
*338 FILLER_18_297
*339 FILLER_18_3
*340 FILLER_18_41
*341 FILLER_18_53
*342 FILLER_18_65
*343 FILLER_18_77
*344 FILLER_18_83
*345 FILLER_18_85
*346 FILLER_18_97
*347 FILLER_19_105
*348 FILLER_19_111
*349 FILLER_19_113
*350 FILLER_19_125
*351 FILLER_19_137
*352 FILLER_19_149
*353 FILLER_19_15
*354 FILLER_19_161
*355 FILLER_19_167
*356 FILLER_19_169
*357 FILLER_19_181
*358 FILLER_19_193
*359 FILLER_19_205
*360 FILLER_19_217
*361 FILLER_19_223
*362 FILLER_19_225
*363 FILLER_19_237
*364 FILLER_19_249
*365 FILLER_19_261
*366 FILLER_19_27
*367 FILLER_19_273
*368 FILLER_19_279
*369 FILLER_19_281
*370 FILLER_19_293
*371 FILLER_19_3
*372 FILLER_19_39
*373 FILLER_19_51
*374 FILLER_19_55
*375 FILLER_19_57
*376 FILLER_19_69
*377 FILLER_19_81
*378 FILLER_19_93
*379 FILLER_1_105
*380 FILLER_1_111
*381 FILLER_1_113
*382 FILLER_1_125
*383 FILLER_1_137
*384 FILLER_1_149
*385 FILLER_1_15
*386 FILLER_1_161
*387 FILLER_1_167
*388 FILLER_1_169
*389 FILLER_1_181
*390 FILLER_1_193
*391 FILLER_1_205
*392 FILLER_1_217
*393 FILLER_1_223
*394 FILLER_1_225
*395 FILLER_1_237
*396 FILLER_1_249
*397 FILLER_1_261
*398 FILLER_1_27
*399 FILLER_1_273
*400 FILLER_1_279
*401 FILLER_1_281
*402 FILLER_1_293
*403 FILLER_1_3
*404 FILLER_1_39
*405 FILLER_1_51
*406 FILLER_1_55
*407 FILLER_1_57
*408 FILLER_1_69
*409 FILLER_1_81
*410 FILLER_1_93
*411 FILLER_20_109
*412 FILLER_20_121
*413 FILLER_20_133
*414 FILLER_20_139
*415 FILLER_20_141
*416 FILLER_20_15
*417 FILLER_20_153
*418 FILLER_20_165
*419 FILLER_20_177
*420 FILLER_20_189
*421 FILLER_20_195
*422 FILLER_20_197
*423 FILLER_20_209
*424 FILLER_20_221
*425 FILLER_20_233
*426 FILLER_20_245
*427 FILLER_20_251
*428 FILLER_20_253
*429 FILLER_20_265
*430 FILLER_20_27
*431 FILLER_20_277
*432 FILLER_20_289
*433 FILLER_20_29
*434 FILLER_20_297
*435 FILLER_20_3
*436 FILLER_20_41
*437 FILLER_20_53
*438 FILLER_20_65
*439 FILLER_20_77
*440 FILLER_20_83
*441 FILLER_20_85
*442 FILLER_20_97
*443 FILLER_21_105
*444 FILLER_21_111
*445 FILLER_21_113
*446 FILLER_21_125
*447 FILLER_21_137
*448 FILLER_21_149
*449 FILLER_21_15
*450 FILLER_21_161
*451 FILLER_21_167
*452 FILLER_21_169
*453 FILLER_21_181
*454 FILLER_21_193
*455 FILLER_21_205
*456 FILLER_21_217
*457 FILLER_21_223
*458 FILLER_21_225
*459 FILLER_21_237
*460 FILLER_21_249
*461 FILLER_21_261
*462 FILLER_21_27
*463 FILLER_21_273
*464 FILLER_21_279
*465 FILLER_21_281
*466 FILLER_21_293
*467 FILLER_21_3
*468 FILLER_21_39
*469 FILLER_21_51
*470 FILLER_21_55
*471 FILLER_21_57
*472 FILLER_21_69
*473 FILLER_21_81
*474 FILLER_21_93
*475 FILLER_22_109
*476 FILLER_22_121
*477 FILLER_22_133
*478 FILLER_22_139
*479 FILLER_22_141
*480 FILLER_22_15
*481 FILLER_22_153
*482 FILLER_22_165
*483 FILLER_22_177
*484 FILLER_22_189
*485 FILLER_22_195
*486 FILLER_22_197
*487 FILLER_22_209
*488 FILLER_22_221
*489 FILLER_22_233
*490 FILLER_22_245
*491 FILLER_22_251
*492 FILLER_22_253
*493 FILLER_22_265
*494 FILLER_22_27
*495 FILLER_22_277
*496 FILLER_22_289
*497 FILLER_22_29
*498 FILLER_22_297
*499 FILLER_22_3
*500 FILLER_22_41
*501 FILLER_22_53
*502 FILLER_22_65
*503 FILLER_22_77
*504 FILLER_22_83
*505 FILLER_22_85
*506 FILLER_22_97
*507 FILLER_23_10
*508 FILLER_23_105
*509 FILLER_23_111
*510 FILLER_23_113
*511 FILLER_23_125
*512 FILLER_23_137
*513 FILLER_23_149
*514 FILLER_23_161
*515 FILLER_23_167
*516 FILLER_23_169
*517 FILLER_23_181
*518 FILLER_23_193
*519 FILLER_23_205
*520 FILLER_23_217
*521 FILLER_23_22
*522 FILLER_23_223
*523 FILLER_23_225
*524 FILLER_23_237
*525 FILLER_23_249
*526 FILLER_23_261
*527 FILLER_23_273
*528 FILLER_23_279
*529 FILLER_23_281
*530 FILLER_23_293
*531 FILLER_23_3
*532 FILLER_23_34
*533 FILLER_23_46
*534 FILLER_23_54
*535 FILLER_23_57
*536 FILLER_23_69
*537 FILLER_23_81
*538 FILLER_23_93
*539 FILLER_24_109
*540 FILLER_24_121
*541 FILLER_24_133
*542 FILLER_24_139
*543 FILLER_24_141
*544 FILLER_24_15
*545 FILLER_24_153
*546 FILLER_24_165
*547 FILLER_24_177
*548 FILLER_24_189
*549 FILLER_24_195
*550 FILLER_24_197
*551 FILLER_24_209
*552 FILLER_24_221
*553 FILLER_24_233
*554 FILLER_24_245
*555 FILLER_24_251
*556 FILLER_24_253
*557 FILLER_24_265
*558 FILLER_24_27
*559 FILLER_24_277
*560 FILLER_24_289
*561 FILLER_24_29
*562 FILLER_24_297
*563 FILLER_24_3
*564 FILLER_24_41
*565 FILLER_24_53
*566 FILLER_24_65
*567 FILLER_24_77
*568 FILLER_24_83
*569 FILLER_24_85
*570 FILLER_24_97
*571 FILLER_25_105
*572 FILLER_25_111
*573 FILLER_25_113
*574 FILLER_25_125
*575 FILLER_25_137
*576 FILLER_25_149
*577 FILLER_25_15
*578 FILLER_25_161
*579 FILLER_25_167
*580 FILLER_25_169
*581 FILLER_25_181
*582 FILLER_25_193
*583 FILLER_25_205
*584 FILLER_25_217
*585 FILLER_25_223
*586 FILLER_25_225
*587 FILLER_25_237
*588 FILLER_25_249
*589 FILLER_25_261
*590 FILLER_25_27
*591 FILLER_25_273
*592 FILLER_25_279
*593 FILLER_25_281
*594 FILLER_25_293
*595 FILLER_25_3
*596 FILLER_25_39
*597 FILLER_25_51
*598 FILLER_25_55
*599 FILLER_25_57
*600 FILLER_25_69
*601 FILLER_25_81
*602 FILLER_25_93
*603 FILLER_26_109
*604 FILLER_26_121
*605 FILLER_26_133
*606 FILLER_26_139
*607 FILLER_26_141
*608 FILLER_26_15
*609 FILLER_26_153
*610 FILLER_26_165
*611 FILLER_26_177
*612 FILLER_26_189
*613 FILLER_26_195
*614 FILLER_26_197
*615 FILLER_26_209
*616 FILLER_26_221
*617 FILLER_26_233
*618 FILLER_26_245
*619 FILLER_26_251
*620 FILLER_26_253
*621 FILLER_26_265
*622 FILLER_26_27
*623 FILLER_26_277
*624 FILLER_26_289
*625 FILLER_26_29
*626 FILLER_26_297
*627 FILLER_26_3
*628 FILLER_26_41
*629 FILLER_26_53
*630 FILLER_26_65
*631 FILLER_26_77
*632 FILLER_26_83
*633 FILLER_26_85
*634 FILLER_26_97
*635 FILLER_27_105
*636 FILLER_27_111
*637 FILLER_27_113
*638 FILLER_27_125
*639 FILLER_27_137
*640 FILLER_27_149
*641 FILLER_27_15
*642 FILLER_27_161
*643 FILLER_27_167
*644 FILLER_27_169
*645 FILLER_27_181
*646 FILLER_27_193
*647 FILLER_27_205
*648 FILLER_27_217
*649 FILLER_27_223
*650 FILLER_27_225
*651 FILLER_27_237
*652 FILLER_27_249
*653 FILLER_27_261
*654 FILLER_27_27
*655 FILLER_27_273
*656 FILLER_27_279
*657 FILLER_27_281
*658 FILLER_27_293
*659 FILLER_27_3
*660 FILLER_27_39
*661 FILLER_27_51
*662 FILLER_27_55
*663 FILLER_27_57
*664 FILLER_27_69
*665 FILLER_27_81
*666 FILLER_27_93
*667 FILLER_28_109
*668 FILLER_28_121
*669 FILLER_28_133
*670 FILLER_28_139
*671 FILLER_28_141
*672 FILLER_28_15
*673 FILLER_28_153
*674 FILLER_28_165
*675 FILLER_28_177
*676 FILLER_28_189
*677 FILLER_28_195
*678 FILLER_28_197
*679 FILLER_28_209
*680 FILLER_28_221
*681 FILLER_28_233
*682 FILLER_28_245
*683 FILLER_28_251
*684 FILLER_28_253
*685 FILLER_28_265
*686 FILLER_28_27
*687 FILLER_28_277
*688 FILLER_28_289
*689 FILLER_28_29
*690 FILLER_28_297
*691 FILLER_28_3
*692 FILLER_28_41
*693 FILLER_28_53
*694 FILLER_28_65
*695 FILLER_28_77
*696 FILLER_28_83
*697 FILLER_28_85
*698 FILLER_28_97
*699 FILLER_29_105
*700 FILLER_29_111
*701 FILLER_29_113
*702 FILLER_29_125
*703 FILLER_29_137
*704 FILLER_29_149
*705 FILLER_29_15
*706 FILLER_29_161
*707 FILLER_29_167
*708 FILLER_29_169
*709 FILLER_29_181
*710 FILLER_29_193
*711 FILLER_29_205
*712 FILLER_29_217
*713 FILLER_29_223
*714 FILLER_29_225
*715 FILLER_29_237
*716 FILLER_29_249
*717 FILLER_29_261
*718 FILLER_29_27
*719 FILLER_29_273
*720 FILLER_29_279
*721 FILLER_29_281
*722 FILLER_29_293
*723 FILLER_29_3
*724 FILLER_29_39
*725 FILLER_29_51
*726 FILLER_29_55
*727 FILLER_29_57
*728 FILLER_29_69
*729 FILLER_29_81
*730 FILLER_29_93
*731 FILLER_2_109
*732 FILLER_2_121
*733 FILLER_2_133
*734 FILLER_2_139
*735 FILLER_2_141
*736 FILLER_2_15
*737 FILLER_2_153
*738 FILLER_2_165
*739 FILLER_2_177
*740 FILLER_2_189
*741 FILLER_2_195
*742 FILLER_2_197
*743 FILLER_2_209
*744 FILLER_2_221
*745 FILLER_2_233
*746 FILLER_2_245
*747 FILLER_2_251
*748 FILLER_2_253
*749 FILLER_2_265
*750 FILLER_2_27
*751 FILLER_2_277
*752 FILLER_2_289
*753 FILLER_2_29
*754 FILLER_2_297
*755 FILLER_2_3
*756 FILLER_2_41
*757 FILLER_2_53
*758 FILLER_2_65
*759 FILLER_2_77
*760 FILLER_2_83
*761 FILLER_2_85
*762 FILLER_2_97
*763 FILLER_30_109
*764 FILLER_30_121
*765 FILLER_30_133
*766 FILLER_30_139
*767 FILLER_30_141
*768 FILLER_30_153
*769 FILLER_30_165
*770 FILLER_30_177
*771 FILLER_30_189
*772 FILLER_30_195
*773 FILLER_30_197
*774 FILLER_30_209
*775 FILLER_30_21
*776 FILLER_30_221
*777 FILLER_30_233
*778 FILLER_30_245
*779 FILLER_30_251
*780 FILLER_30_253
*781 FILLER_30_265
*782 FILLER_30_27
*783 FILLER_30_277
*784 FILLER_30_289
*785 FILLER_30_29
*786 FILLER_30_297
*787 FILLER_30_3
*788 FILLER_30_41
*789 FILLER_30_53
*790 FILLER_30_65
*791 FILLER_30_77
*792 FILLER_30_83
*793 FILLER_30_85
*794 FILLER_30_9
*795 FILLER_30_97
*796 FILLER_31_105
*797 FILLER_31_111
*798 FILLER_31_113
*799 FILLER_31_125
*800 FILLER_31_137
*801 FILLER_31_149
*802 FILLER_31_161
*803 FILLER_31_167
*804 FILLER_31_169
*805 FILLER_31_181
*806 FILLER_31_193
*807 FILLER_31_205
*808 FILLER_31_217
*809 FILLER_31_223
*810 FILLER_31_225
*811 FILLER_31_237
*812 FILLER_31_249
*813 FILLER_31_261
*814 FILLER_31_27
*815 FILLER_31_273
*816 FILLER_31_279
*817 FILLER_31_281
*818 FILLER_31_293
*819 FILLER_31_3
*820 FILLER_31_39
*821 FILLER_31_51
*822 FILLER_31_55
*823 FILLER_31_57
*824 FILLER_31_69
*825 FILLER_31_81
*826 FILLER_31_93
*827 FILLER_32_109
*828 FILLER_32_121
*829 FILLER_32_133
*830 FILLER_32_139
*831 FILLER_32_141
*832 FILLER_32_15
*833 FILLER_32_153
*834 FILLER_32_165
*835 FILLER_32_177
*836 FILLER_32_189
*837 FILLER_32_195
*838 FILLER_32_197
*839 FILLER_32_209
*840 FILLER_32_221
*841 FILLER_32_233
*842 FILLER_32_245
*843 FILLER_32_251
*844 FILLER_32_253
*845 FILLER_32_265
*846 FILLER_32_27
*847 FILLER_32_277
*848 FILLER_32_289
*849 FILLER_32_29
*850 FILLER_32_297
*851 FILLER_32_3
*852 FILLER_32_41
*853 FILLER_32_53
*854 FILLER_32_65
*855 FILLER_32_77
*856 FILLER_32_83
*857 FILLER_32_85
*858 FILLER_32_97
*859 FILLER_33_105
*860 FILLER_33_111
*861 FILLER_33_113
*862 FILLER_33_125
*863 FILLER_33_137
*864 FILLER_33_149
*865 FILLER_33_15
*866 FILLER_33_161
*867 FILLER_33_167
*868 FILLER_33_169
*869 FILLER_33_181
*870 FILLER_33_193
*871 FILLER_33_205
*872 FILLER_33_217
*873 FILLER_33_223
*874 FILLER_33_225
*875 FILLER_33_237
*876 FILLER_33_249
*877 FILLER_33_261
*878 FILLER_33_27
*879 FILLER_33_273
*880 FILLER_33_279
*881 FILLER_33_281
*882 FILLER_33_293
*883 FILLER_33_3
*884 FILLER_33_39
*885 FILLER_33_51
*886 FILLER_33_55
*887 FILLER_33_57
*888 FILLER_33_69
*889 FILLER_33_81
*890 FILLER_33_93
*891 FILLER_34_109
*892 FILLER_34_121
*893 FILLER_34_133
*894 FILLER_34_139
*895 FILLER_34_141
*896 FILLER_34_153
*897 FILLER_34_165
*898 FILLER_34_177
*899 FILLER_34_189
*900 FILLER_34_195
*901 FILLER_34_197
*902 FILLER_34_209
*903 FILLER_34_21
*904 FILLER_34_221
*905 FILLER_34_233
*906 FILLER_34_245
*907 FILLER_34_251
*908 FILLER_34_253
*909 FILLER_34_265
*910 FILLER_34_27
*911 FILLER_34_277
*912 FILLER_34_289
*913 FILLER_34_29
*914 FILLER_34_297
*915 FILLER_34_3
*916 FILLER_34_41
*917 FILLER_34_53
*918 FILLER_34_65
*919 FILLER_34_77
*920 FILLER_34_83
*921 FILLER_34_85
*922 FILLER_34_9
*923 FILLER_34_97
*924 FILLER_35_105
*925 FILLER_35_111
*926 FILLER_35_113
*927 FILLER_35_125
*928 FILLER_35_137
*929 FILLER_35_149
*930 FILLER_35_15
*931 FILLER_35_161
*932 FILLER_35_167
*933 FILLER_35_169
*934 FILLER_35_181
*935 FILLER_35_193
*936 FILLER_35_205
*937 FILLER_35_217
*938 FILLER_35_223
*939 FILLER_35_225
*940 FILLER_35_237
*941 FILLER_35_249
*942 FILLER_35_261
*943 FILLER_35_27
*944 FILLER_35_273
*945 FILLER_35_279
*946 FILLER_35_281
*947 FILLER_35_293
*948 FILLER_35_3
*949 FILLER_35_39
*950 FILLER_35_51
*951 FILLER_35_55
*952 FILLER_35_57
*953 FILLER_35_69
*954 FILLER_35_81
*955 FILLER_35_93
*956 FILLER_36_109
*957 FILLER_36_121
*958 FILLER_36_133
*959 FILLER_36_139
*960 FILLER_36_141
*961 FILLER_36_15
*962 FILLER_36_153
*963 FILLER_36_165
*964 FILLER_36_177
*965 FILLER_36_189
*966 FILLER_36_195
*967 FILLER_36_197
*968 FILLER_36_209
*969 FILLER_36_221
*970 FILLER_36_233
*971 FILLER_36_245
*972 FILLER_36_251
*973 FILLER_36_253
*974 FILLER_36_265
*975 FILLER_36_27
*976 FILLER_36_277
*977 FILLER_36_289
*978 FILLER_36_29
*979 FILLER_36_297
*980 FILLER_36_3
*981 FILLER_36_41
*982 FILLER_36_53
*983 FILLER_36_65
*984 FILLER_36_77
*985 FILLER_36_83
*986 FILLER_36_85
*987 FILLER_36_97
*988 FILLER_37_105
*989 FILLER_37_111
*990 FILLER_37_113
*991 FILLER_37_125
*992 FILLER_37_137
*993 FILLER_37_149
*994 FILLER_37_161
*995 FILLER_37_167
*996 FILLER_37_169
*997 FILLER_37_181
*998 FILLER_37_193
*999 FILLER_37_205
*1000 FILLER_37_217
*1001 FILLER_37_223
*1002 FILLER_37_225
*1003 FILLER_37_237
*1004 FILLER_37_249
*1005 FILLER_37_261
*1006 FILLER_37_273
*1007 FILLER_37_279
*1008 FILLER_37_281
*1009 FILLER_37_293
*1010 FILLER_37_3
*1011 FILLER_37_31
*1012 FILLER_37_43
*1013 FILLER_37_55
*1014 FILLER_37_57
*1015 FILLER_37_69
*1016 FILLER_37_81
*1017 FILLER_37_93
*1018 FILLER_38_109
*1019 FILLER_38_121
*1020 FILLER_38_133
*1021 FILLER_38_139
*1022 FILLER_38_141
*1023 FILLER_38_153
*1024 FILLER_38_165
*1025 FILLER_38_177
*1026 FILLER_38_189
*1027 FILLER_38_195
*1028 FILLER_38_197
*1029 FILLER_38_209
*1030 FILLER_38_21
*1031 FILLER_38_221
*1032 FILLER_38_233
*1033 FILLER_38_245
*1034 FILLER_38_251
*1035 FILLER_38_253
*1036 FILLER_38_265
*1037 FILLER_38_27
*1038 FILLER_38_277
*1039 FILLER_38_289
*1040 FILLER_38_29
*1041 FILLER_38_297
*1042 FILLER_38_3
*1043 FILLER_38_41
*1044 FILLER_38_53
*1045 FILLER_38_65
*1046 FILLER_38_77
*1047 FILLER_38_83
*1048 FILLER_38_85
*1049 FILLER_38_9
*1050 FILLER_38_97
*1051 FILLER_39_105
*1052 FILLER_39_111
*1053 FILLER_39_113
*1054 FILLER_39_125
*1055 FILLER_39_137
*1056 FILLER_39_149
*1057 FILLER_39_15
*1058 FILLER_39_161
*1059 FILLER_39_167
*1060 FILLER_39_169
*1061 FILLER_39_181
*1062 FILLER_39_193
*1063 FILLER_39_205
*1064 FILLER_39_217
*1065 FILLER_39_223
*1066 FILLER_39_225
*1067 FILLER_39_237
*1068 FILLER_39_249
*1069 FILLER_39_261
*1070 FILLER_39_27
*1071 FILLER_39_273
*1072 FILLER_39_279
*1073 FILLER_39_281
*1074 FILLER_39_293
*1075 FILLER_39_3
*1076 FILLER_39_39
*1077 FILLER_39_51
*1078 FILLER_39_55
*1079 FILLER_39_57
*1080 FILLER_39_69
*1081 FILLER_39_81
*1082 FILLER_39_93
*1083 FILLER_3_105
*1084 FILLER_3_111
*1085 FILLER_3_113
*1086 FILLER_3_125
*1087 FILLER_3_137
*1088 FILLER_3_149
*1089 FILLER_3_15
*1090 FILLER_3_161
*1091 FILLER_3_167
*1092 FILLER_3_169
*1093 FILLER_3_181
*1094 FILLER_3_193
*1095 FILLER_3_205
*1096 FILLER_3_217
*1097 FILLER_3_223
*1098 FILLER_3_225
*1099 FILLER_3_237
*1100 FILLER_3_249
*1101 FILLER_3_261
*1102 FILLER_3_27
*1103 FILLER_3_273
*1104 FILLER_3_279
*1105 FILLER_3_281
*1106 FILLER_3_293
*1107 FILLER_3_3
*1108 FILLER_3_39
*1109 FILLER_3_51
*1110 FILLER_3_55
*1111 FILLER_3_57
*1112 FILLER_3_69
*1113 FILLER_3_81
*1114 FILLER_3_93
*1115 FILLER_40_109
*1116 FILLER_40_121
*1117 FILLER_40_133
*1118 FILLER_40_139
*1119 FILLER_40_141
*1120 FILLER_40_153
*1121 FILLER_40_165
*1122 FILLER_40_17
*1123 FILLER_40_177
*1124 FILLER_40_189
*1125 FILLER_40_195
*1126 FILLER_40_197
*1127 FILLER_40_209
*1128 FILLER_40_221
*1129 FILLER_40_233
*1130 FILLER_40_245
*1131 FILLER_40_25
*1132 FILLER_40_251
*1133 FILLER_40_253
*1134 FILLER_40_265
*1135 FILLER_40_277
*1136 FILLER_40_289
*1137 FILLER_40_29
*1138 FILLER_40_297
*1139 FILLER_40_3
*1140 FILLER_40_41
*1141 FILLER_40_53
*1142 FILLER_40_65
*1143 FILLER_40_77
*1144 FILLER_40_83
*1145 FILLER_40_85
*1146 FILLER_40_9
*1147 FILLER_40_97
*1148 FILLER_41_105
*1149 FILLER_41_111
*1150 FILLER_41_113
*1151 FILLER_41_125
*1152 FILLER_41_137
*1153 FILLER_41_149
*1154 FILLER_41_161
*1155 FILLER_41_167
*1156 FILLER_41_169
*1157 FILLER_41_181
*1158 FILLER_41_193
*1159 FILLER_41_205
*1160 FILLER_41_217
*1161 FILLER_41_223
*1162 FILLER_41_225
*1163 FILLER_41_237
*1164 FILLER_41_249
*1165 FILLER_41_261
*1166 FILLER_41_27
*1167 FILLER_41_273
*1168 FILLER_41_279
*1169 FILLER_41_281
*1170 FILLER_41_293
*1171 FILLER_41_3
*1172 FILLER_41_39
*1173 FILLER_41_51
*1174 FILLER_41_55
*1175 FILLER_41_57
*1176 FILLER_41_69
*1177 FILLER_41_81
*1178 FILLER_41_93
*1179 FILLER_42_109
*1180 FILLER_42_121
*1181 FILLER_42_133
*1182 FILLER_42_139
*1183 FILLER_42_141
*1184 FILLER_42_15
*1185 FILLER_42_153
*1186 FILLER_42_165
*1187 FILLER_42_177
*1188 FILLER_42_189
*1189 FILLER_42_195
*1190 FILLER_42_197
*1191 FILLER_42_209
*1192 FILLER_42_221
*1193 FILLER_42_233
*1194 FILLER_42_245
*1195 FILLER_42_251
*1196 FILLER_42_253
*1197 FILLER_42_265
*1198 FILLER_42_27
*1199 FILLER_42_277
*1200 FILLER_42_289
*1201 FILLER_42_29
*1202 FILLER_42_297
*1203 FILLER_42_3
*1204 FILLER_42_41
*1205 FILLER_42_53
*1206 FILLER_42_65
*1207 FILLER_42_77
*1208 FILLER_42_83
*1209 FILLER_42_85
*1210 FILLER_42_97
*1211 FILLER_43_105
*1212 FILLER_43_111
*1213 FILLER_43_113
*1214 FILLER_43_125
*1215 FILLER_43_137
*1216 FILLER_43_149
*1217 FILLER_43_15
*1218 FILLER_43_161
*1219 FILLER_43_167
*1220 FILLER_43_169
*1221 FILLER_43_181
*1222 FILLER_43_193
*1223 FILLER_43_205
*1224 FILLER_43_217
*1225 FILLER_43_223
*1226 FILLER_43_225
*1227 FILLER_43_237
*1228 FILLER_43_249
*1229 FILLER_43_261
*1230 FILLER_43_27
*1231 FILLER_43_273
*1232 FILLER_43_279
*1233 FILLER_43_281
*1234 FILLER_43_293
*1235 FILLER_43_3
*1236 FILLER_43_39
*1237 FILLER_43_51
*1238 FILLER_43_55
*1239 FILLER_43_57
*1240 FILLER_43_69
*1241 FILLER_43_81
*1242 FILLER_43_93
*1243 FILLER_44_109
*1244 FILLER_44_121
*1245 FILLER_44_133
*1246 FILLER_44_139
*1247 FILLER_44_141
*1248 FILLER_44_15
*1249 FILLER_44_153
*1250 FILLER_44_165
*1251 FILLER_44_177
*1252 FILLER_44_189
*1253 FILLER_44_195
*1254 FILLER_44_197
*1255 FILLER_44_209
*1256 FILLER_44_221
*1257 FILLER_44_233
*1258 FILLER_44_245
*1259 FILLER_44_251
*1260 FILLER_44_253
*1261 FILLER_44_265
*1262 FILLER_44_27
*1263 FILLER_44_277
*1264 FILLER_44_289
*1265 FILLER_44_29
*1266 FILLER_44_297
*1267 FILLER_44_3
*1268 FILLER_44_41
*1269 FILLER_44_53
*1270 FILLER_44_65
*1271 FILLER_44_77
*1272 FILLER_44_83
*1273 FILLER_44_85
*1274 FILLER_44_97
*1275 FILLER_45_105
*1276 FILLER_45_111
*1277 FILLER_45_113
*1278 FILLER_45_125
*1279 FILLER_45_137
*1280 FILLER_45_149
*1281 FILLER_45_15
*1282 FILLER_45_161
*1283 FILLER_45_167
*1284 FILLER_45_169
*1285 FILLER_45_181
*1286 FILLER_45_193
*1287 FILLER_45_205
*1288 FILLER_45_217
*1289 FILLER_45_223
*1290 FILLER_45_225
*1291 FILLER_45_237
*1292 FILLER_45_249
*1293 FILLER_45_261
*1294 FILLER_45_27
*1295 FILLER_45_273
*1296 FILLER_45_279
*1297 FILLER_45_281
*1298 FILLER_45_293
*1299 FILLER_45_3
*1300 FILLER_45_39
*1301 FILLER_45_51
*1302 FILLER_45_55
*1303 FILLER_45_57
*1304 FILLER_45_69
*1305 FILLER_45_81
*1306 FILLER_45_93
*1307 FILLER_46_109
*1308 FILLER_46_121
*1309 FILLER_46_133
*1310 FILLER_46_139
*1311 FILLER_46_141
*1312 FILLER_46_153
*1313 FILLER_46_165
*1314 FILLER_46_177
*1315 FILLER_46_18
*1316 FILLER_46_189
*1317 FILLER_46_195
*1318 FILLER_46_197
*1319 FILLER_46_209
*1320 FILLER_46_221
*1321 FILLER_46_233
*1322 FILLER_46_245
*1323 FILLER_46_251
*1324 FILLER_46_253
*1325 FILLER_46_26
*1326 FILLER_46_265
*1327 FILLER_46_277
*1328 FILLER_46_289
*1329 FILLER_46_29
*1330 FILLER_46_297
*1331 FILLER_46_41
*1332 FILLER_46_53
*1333 FILLER_46_6
*1334 FILLER_46_65
*1335 FILLER_46_77
*1336 FILLER_46_83
*1337 FILLER_46_85
*1338 FILLER_46_97
*1339 FILLER_47_105
*1340 FILLER_47_111
*1341 FILLER_47_113
*1342 FILLER_47_125
*1343 FILLER_47_137
*1344 FILLER_47_149
*1345 FILLER_47_15
*1346 FILLER_47_161
*1347 FILLER_47_167
*1348 FILLER_47_169
*1349 FILLER_47_181
*1350 FILLER_47_193
*1351 FILLER_47_205
*1352 FILLER_47_217
*1353 FILLER_47_223
*1354 FILLER_47_225
*1355 FILLER_47_237
*1356 FILLER_47_249
*1357 FILLER_47_261
*1358 FILLER_47_27
*1359 FILLER_47_273
*1360 FILLER_47_279
*1361 FILLER_47_281
*1362 FILLER_47_293
*1363 FILLER_47_3
*1364 FILLER_47_39
*1365 FILLER_47_51
*1366 FILLER_47_55
*1367 FILLER_47_57
*1368 FILLER_47_69
*1369 FILLER_47_81
*1370 FILLER_47_93
*1371 FILLER_48_109
*1372 FILLER_48_121
*1373 FILLER_48_133
*1374 FILLER_48_139
*1375 FILLER_48_141
*1376 FILLER_48_15
*1377 FILLER_48_153
*1378 FILLER_48_165
*1379 FILLER_48_177
*1380 FILLER_48_189
*1381 FILLER_48_195
*1382 FILLER_48_197
*1383 FILLER_48_209
*1384 FILLER_48_221
*1385 FILLER_48_233
*1386 FILLER_48_245
*1387 FILLER_48_251
*1388 FILLER_48_253
*1389 FILLER_48_265
*1390 FILLER_48_27
*1391 FILLER_48_277
*1392 FILLER_48_289
*1393 FILLER_48_29
*1394 FILLER_48_297
*1395 FILLER_48_3
*1396 FILLER_48_41
*1397 FILLER_48_53
*1398 FILLER_48_65
*1399 FILLER_48_77
*1400 FILLER_48_83
*1401 FILLER_48_85
*1402 FILLER_48_97
*1403 FILLER_49_105
*1404 FILLER_49_111
*1405 FILLER_49_113
*1406 FILLER_49_125
*1407 FILLER_49_137
*1408 FILLER_49_149
*1409 FILLER_49_15
*1410 FILLER_49_161
*1411 FILLER_49_167
*1412 FILLER_49_169
*1413 FILLER_49_181
*1414 FILLER_49_193
*1415 FILLER_49_205
*1416 FILLER_49_217
*1417 FILLER_49_223
*1418 FILLER_49_225
*1419 FILLER_49_237
*1420 FILLER_49_249
*1421 FILLER_49_261
*1422 FILLER_49_27
*1423 FILLER_49_273
*1424 FILLER_49_279
*1425 FILLER_49_281
*1426 FILLER_49_293
*1427 FILLER_49_3
*1428 FILLER_49_39
*1429 FILLER_49_51
*1430 FILLER_49_55
*1431 FILLER_49_57
*1432 FILLER_49_69
*1433 FILLER_49_81
*1434 FILLER_49_93
*1435 FILLER_4_109
*1436 FILLER_4_121
*1437 FILLER_4_133
*1438 FILLER_4_139
*1439 FILLER_4_141
*1440 FILLER_4_15
*1441 FILLER_4_153
*1442 FILLER_4_165
*1443 FILLER_4_177
*1444 FILLER_4_189
*1445 FILLER_4_195
*1446 FILLER_4_197
*1447 FILLER_4_209
*1448 FILLER_4_221
*1449 FILLER_4_233
*1450 FILLER_4_245
*1451 FILLER_4_251
*1452 FILLER_4_253
*1453 FILLER_4_265
*1454 FILLER_4_27
*1455 FILLER_4_277
*1456 FILLER_4_289
*1457 FILLER_4_29
*1458 FILLER_4_297
*1459 FILLER_4_3
*1460 FILLER_4_41
*1461 FILLER_4_53
*1462 FILLER_4_65
*1463 FILLER_4_77
*1464 FILLER_4_83
*1465 FILLER_4_85
*1466 FILLER_4_97
*1467 FILLER_50_109
*1468 FILLER_50_121
*1469 FILLER_50_133
*1470 FILLER_50_139
*1471 FILLER_50_141
*1472 FILLER_50_153
*1473 FILLER_50_165
*1474 FILLER_50_177
*1475 FILLER_50_18
*1476 FILLER_50_189
*1477 FILLER_50_195
*1478 FILLER_50_197
*1479 FILLER_50_209
*1480 FILLER_50_221
*1481 FILLER_50_233
*1482 FILLER_50_245
*1483 FILLER_50_251
*1484 FILLER_50_253
*1485 FILLER_50_26
*1486 FILLER_50_265
*1487 FILLER_50_277
*1488 FILLER_50_289
*1489 FILLER_50_29
*1490 FILLER_50_297
*1491 FILLER_50_41
*1492 FILLER_50_53
*1493 FILLER_50_6
*1494 FILLER_50_65
*1495 FILLER_50_77
*1496 FILLER_50_83
*1497 FILLER_50_85
*1498 FILLER_50_97
*1499 FILLER_51_105
*1500 FILLER_51_111
*1501 FILLER_51_113
*1502 FILLER_51_125
*1503 FILLER_51_137
*1504 FILLER_51_149
*1505 FILLER_51_15
*1506 FILLER_51_161
*1507 FILLER_51_167
*1508 FILLER_51_169
*1509 FILLER_51_181
*1510 FILLER_51_193
*1511 FILLER_51_205
*1512 FILLER_51_217
*1513 FILLER_51_223
*1514 FILLER_51_225
*1515 FILLER_51_237
*1516 FILLER_51_249
*1517 FILLER_51_261
*1518 FILLER_51_27
*1519 FILLER_51_273
*1520 FILLER_51_279
*1521 FILLER_51_281
*1522 FILLER_51_293
*1523 FILLER_51_3
*1524 FILLER_51_39
*1525 FILLER_51_51
*1526 FILLER_51_55
*1527 FILLER_51_57
*1528 FILLER_51_69
*1529 FILLER_51_81
*1530 FILLER_51_93
*1531 FILLER_52_109
*1532 FILLER_52_121
*1533 FILLER_52_133
*1534 FILLER_52_139
*1535 FILLER_52_141
*1536 FILLER_52_15
*1537 FILLER_52_153
*1538 FILLER_52_165
*1539 FILLER_52_177
*1540 FILLER_52_189
*1541 FILLER_52_195
*1542 FILLER_52_197
*1543 FILLER_52_209
*1544 FILLER_52_221
*1545 FILLER_52_233
*1546 FILLER_52_245
*1547 FILLER_52_251
*1548 FILLER_52_253
*1549 FILLER_52_265
*1550 FILLER_52_27
*1551 FILLER_52_277
*1552 FILLER_52_289
*1553 FILLER_52_29
*1554 FILLER_52_297
*1555 FILLER_52_3
*1556 FILLER_52_41
*1557 FILLER_52_53
*1558 FILLER_52_65
*1559 FILLER_52_77
*1560 FILLER_52_83
*1561 FILLER_52_85
*1562 FILLER_52_97
*1563 FILLER_53_105
*1564 FILLER_53_111
*1565 FILLER_53_113
*1566 FILLER_53_125
*1567 FILLER_53_137
*1568 FILLER_53_149
*1569 FILLER_53_15
*1570 FILLER_53_161
*1571 FILLER_53_167
*1572 FILLER_53_169
*1573 FILLER_53_181
*1574 FILLER_53_193
*1575 FILLER_53_205
*1576 FILLER_53_217
*1577 FILLER_53_223
*1578 FILLER_53_225
*1579 FILLER_53_237
*1580 FILLER_53_249
*1581 FILLER_53_261