*SPEF "ieee 1481-1999"
*DESIGN "user_module_347592305412145748"
*DATE "11:11:11 Fri 11 11, 1111"
*VENDOR "OpenRCX"
*PROGRAM "Parallel Extraction"
*VERSION "1.0"
*DESIGN_FLOW "NAME_SCOPE LOCAL" "PIN_CAP NONE"
*DIVIDER /
*DELIMITER :
*BUS_DELIMITER []
*T_UNIT 1 NS
*C_UNIT 1 PF
*R_UNIT 1 OHM
*L_UNIT 1 HENRY

*NAME_MAP
*1 io_in[0]
*2 io_in[1]
*3 io_in[2]
*4 io_in[3]
*5 io_in[4]
*6 io_in[5]
*7 io_in[6]
*8 io_in[7]
*9 io_out[0]
*10 io_out[1]
*11 io_out[2]
*12 io_out[3]
*13 io_out[4]
*14 io_out[5]
*15 net9
*16 io_out[7]
*19 _000_
*20 _001_
*21 _002_
*22 _003_
*23 _004_
*24 _005_
*25 _006_
*26 _007_
*27 _008_
*28 _009_
*29 _010_
*30 _011_
*31 _012_
*32 _013_
*33 _014_
*34 _015_
*35 _016_
*36 _017_
*37 _018_
*38 _019_
*39 _020_
*40 _021_
*41 _022_
*42 _023_
*43 _024_
*44 _025_
*45 _026_
*46 _027_
*47 _028_
*48 _029_
*49 _030_
*50 _031_
*51 _032_
*52 _033_
*53 _034_
*54 _035_
*55 _036_
*56 _037_
*57 _038_
*58 _039_
*59 _040_
*60 _041_
*61 _042_
*62 _043_
*63 _044_
*64 _045_
*65 _046_
*66 _047_
*67 _048_
*68 _049_
*69 _050_
*70 _051_
*71 _052_
*72 _053_
*73 _054_
*74 _055_
*75 _056_
*76 _057_
*77 _058_
*78 _059_
*79 _060_
*80 _061_
*81 _062_
*82 _063_
*83 _064_
*84 _065_
*85 _066_
*86 _067_
*87 _068_
*88 _069_
*89 _070_
*90 _071_
*91 _072_
*92 _073_
*93 _074_
*94 _075_
*95 _076_
*96 _077_
*97 _078_
*98 _079_
*99 _080_
*100 _081_
*101 _082_
*102 _083_
*103 _084_
*104 _085_
*105 _086_
*106 _087_
*107 _088_
*108 _089_
*109 _090_
*110 _091_
*111 _092_
*112 _093_
*113 _094_
*114 _095_
*115 _096_
*116 _097_
*117 _098_
*118 _099_
*119 _100_
*120 _101_
*121 _102_
*122 _103_
*123 _104_
*124 _105_
*125 _106_
*126 _107_
*127 _108_
*128 _109_
*129 _110_
*130 _111_
*131 _112_
*132 _113_
*133 _114_
*134 _115_
*135 _116_
*136 _117_
*137 _118_
*138 _119_
*139 _120_
*140 _121_
*141 _122_
*142 _123_
*143 _124_
*144 _125_
*145 _126_
*146 _127_
*147 _128_
*148 clknet_0_io_in[0]
*149 clknet_2_0__leaf_io_in[0]
*150 clknet_2_1__leaf_io_in[0]
*151 clknet_2_2__leaf_io_in[0]
*152 clknet_2_3__leaf_io_in[0]
*153 flipflop1\.d
*154 flipflop1\.q
*155 flipflop10\.clk
*156 flipflop10\.d
*157 flipflop10\.q
*158 flipflop11\.d
*159 flipflop11\.q
*160 flipflop12\.d
*161 flipflop12\.q
*162 flipflop13\.q
*163 flipflop14\.q
*164 flipflop15\.d
*165 flipflop15\.q
*166 flipflop16\.d
*167 flipflop16\.q
*168 flipflop17\.d
*169 flipflop17\.q
*170 flipflop18\.d
*171 flipflop18\.q
*172 flipflop19\.q
*173 flipflop2\.d
*174 flipflop2\.q
*175 flipflop20\.q
*176 flipflop21\.d
*177 flipflop21\.q
*178 flipflop22\.q
*179 flipflop23\.q
*180 flipflop24\.q
*181 flipflop25\.q
*182 flipflop26\.q
*183 flipflop27\.d
*184 flipflop27\.q
*185 flipflop28\.q
*186 flipflop29\.d
*187 flipflop29\.q
*188 flipflop3\.q
*189 flipflop30\.q
*190 flipflop31\.q
*191 flipflop32\.d
*192 flipflop32\.q
*193 flipflop33\.d
*194 flipflop33\.q
*195 flipflop34\.d
*196 flipflop34\.q
*197 flipflop35\.q
*198 flipflop36\.q
*199 flipflop37\.d
*200 flipflop37\.q
*201 flipflop38\.q
*202 flipflop39\.q
*203 flipflop4\.q
*204 flipflop40\.q
*205 flipflop41\.d
*206 flipflop41\.q
*207 flipflop42\.q
*208 flipflop43\.q
*209 flipflop44\.q
*210 flipflop45\.q
*211 flipflop5\.q
*212 flipflop6\.q
*213 flipflop8\.d
*214 flipflop8\.q
*215 flipflop9\.d
*216 net1
*217 net10
*218 net11
*219 net12
*220 net13
*221 net14
*222 net15
*223 net16
*224 net17
*225 net18
*226 net19
*227 net2
*228 net20
*229 net21
*230 net22
*231 net23
*232 net24
*233 net25
*234 net26
*235 net27
*236 net28
*237 net29
*238 net3
*239 net30
*240 net31
*241 net32
*242 net4
*243 net5
*244 net6
*245 net7
*246 net8
*247 FILLER_0_102
*248 FILLER_0_110
*249 FILLER_0_113
*250 FILLER_0_125
*251 FILLER_0_137
*252 FILLER_0_141
*253 FILLER_0_15
*254 FILLER_0_153
*255 FILLER_0_165
*256 FILLER_0_169
*257 FILLER_0_181
*258 FILLER_0_193
*259 FILLER_0_197
*260 FILLER_0_209
*261 FILLER_0_221
*262 FILLER_0_225
*263 FILLER_0_237
*264 FILLER_0_249
*265 FILLER_0_253
*266 FILLER_0_265
*267 FILLER_0_27
*268 FILLER_0_277
*269 FILLER_0_281
*270 FILLER_0_29
*271 FILLER_0_293
*272 FILLER_0_3
*273 FILLER_0_41
*274 FILLER_0_53
*275 FILLER_0_57
*276 FILLER_0_69
*277 FILLER_0_79
*278 FILLER_0_83
*279 FILLER_0_90
*280 FILLER_10_110
*281 FILLER_10_122
*282 FILLER_10_134
*283 FILLER_10_141
*284 FILLER_10_153
*285 FILLER_10_165
*286 FILLER_10_177
*287 FILLER_10_18
*288 FILLER_10_189
*289 FILLER_10_195
*290 FILLER_10_197
*291 FILLER_10_209
*292 FILLER_10_221
*293 FILLER_10_233
*294 FILLER_10_245
*295 FILLER_10_251
*296 FILLER_10_253
*297 FILLER_10_26
*298 FILLER_10_265
*299 FILLER_10_277
*300 FILLER_10_289
*301 FILLER_10_297
*302 FILLER_10_3
*303 FILLER_10_37
*304 FILLER_10_41
*305 FILLER_10_47
*306 FILLER_10_58
*307 FILLER_10_7
*308 FILLER_10_78
*309 FILLER_10_90
*310 FILLER_11_107
*311 FILLER_11_111
*312 FILLER_11_121
*313 FILLER_11_13
*314 FILLER_11_133
*315 FILLER_11_145
*316 FILLER_11_157
*317 FILLER_11_165
*318 FILLER_11_169
*319 FILLER_11_17
*320 FILLER_11_181
*321 FILLER_11_193
*322 FILLER_11_205
*323 FILLER_11_217
*324 FILLER_11_223
*325 FILLER_11_225
*326 FILLER_11_237
*327 FILLER_11_249
*328 FILLER_11_25
*329 FILLER_11_261
*330 FILLER_11_273
*331 FILLER_11_279
*332 FILLER_11_281
*333 FILLER_11_293
*334 FILLER_11_36
*335 FILLER_11_49
*336 FILLER_11_55
*337 FILLER_11_65
*338 FILLER_11_76
*339 FILLER_11_80
*340 FILLER_11_84
*341 FILLER_11_9
*342 FILLER_11_90
*343 FILLER_12_105
*344 FILLER_12_117
*345 FILLER_12_129
*346 FILLER_12_137
*347 FILLER_12_141
*348 FILLER_12_153
*349 FILLER_12_16
*350 FILLER_12_165
*351 FILLER_12_177
*352 FILLER_12_189
*353 FILLER_12_195
*354 FILLER_12_197
*355 FILLER_12_209
*356 FILLER_12_221
*357 FILLER_12_23
*358 FILLER_12_233
*359 FILLER_12_245
*360 FILLER_12_251
*361 FILLER_12_253
*362 FILLER_12_265
*363 FILLER_12_27
*364 FILLER_12_277
*365 FILLER_12_289
*366 FILLER_12_297
*367 FILLER_12_3
*368 FILLER_12_34
*369 FILLER_12_46
*370 FILLER_12_61
*371 FILLER_12_73
*372 FILLER_12_81
*373 FILLER_12_93
*374 FILLER_13_101
*375 FILLER_13_109
*376 FILLER_13_113
*377 FILLER_13_125
*378 FILLER_13_137
*379 FILLER_13_149
*380 FILLER_13_15
*381 FILLER_13_161
*382 FILLER_13_167
*383 FILLER_13_169
*384 FILLER_13_181
*385 FILLER_13_193
*386 FILLER_13_205
*387 FILLER_13_217
*388 FILLER_13_22
*389 FILLER_13_223
*390 FILLER_13_225
*391 FILLER_13_237
*392 FILLER_13_249
*393 FILLER_13_261
*394 FILLER_13_273
*395 FILLER_13_279
*396 FILLER_13_281
*397 FILLER_13_293
*398 FILLER_13_36
*399 FILLER_13_49
*400 FILLER_13_55
*401 FILLER_13_6
*402 FILLER_13_60
*403 FILLER_13_64
*404 FILLER_13_81
*405 FILLER_14_110
*406 FILLER_14_12
*407 FILLER_14_122
*408 FILLER_14_134
*409 FILLER_14_141
*410 FILLER_14_153
*411 FILLER_14_165
*412 FILLER_14_177
*413 FILLER_14_189
*414 FILLER_14_195
*415 FILLER_14_197
*416 FILLER_14_209
*417 FILLER_14_221
*418 FILLER_14_23
*419 FILLER_14_233
*420 FILLER_14_245
*421 FILLER_14_251
*422 FILLER_14_253
*423 FILLER_14_265
*424 FILLER_14_27
*425 FILLER_14_277
*426 FILLER_14_289
*427 FILLER_14_297
*428 FILLER_14_3
*429 FILLER_14_37
*430 FILLER_14_46
*431 FILLER_14_59
*432 FILLER_14_63
*433 FILLER_14_80
*434 FILLER_14_85
*435 FILLER_14_91
*436 FILLER_14_98
*437 FILLER_15_105
*438 FILLER_15_11
*439 FILLER_15_111
*440 FILLER_15_113
*441 FILLER_15_125
*442 FILLER_15_137
*443 FILLER_15_149
*444 FILLER_15_161
*445 FILLER_15_167
*446 FILLER_15_169
*447 FILLER_15_181
*448 FILLER_15_193
*449 FILLER_15_205
*450 FILLER_15_217
*451 FILLER_15_223
*452 FILLER_15_225
*453 FILLER_15_237
*454 FILLER_15_249
*455 FILLER_15_25
*456 FILLER_15_261
*457 FILLER_15_273
*458 FILLER_15_279
*459 FILLER_15_281
*460 FILLER_15_293
*461 FILLER_15_3
*462 FILLER_15_36
*463 FILLER_15_43
*464 FILLER_15_52
*465 FILLER_15_64
*466 FILLER_15_70
*467 FILLER_15_77
*468 FILLER_16_110
*469 FILLER_16_122
*470 FILLER_16_134
*471 FILLER_16_141
*472 FILLER_16_15
*473 FILLER_16_153
*474 FILLER_16_165
*475 FILLER_16_177
*476 FILLER_16_189
*477 FILLER_16_195
*478 FILLER_16_197
*479 FILLER_16_209
*480 FILLER_16_22
*481 FILLER_16_221
*482 FILLER_16_233
*483 FILLER_16_245
*484 FILLER_16_251
*485 FILLER_16_253
*486 FILLER_16_265
*487 FILLER_16_277
*488 FILLER_16_289
*489 FILLER_16_297
*490 FILLER_16_36
*491 FILLER_16_46
*492 FILLER_16_57
*493 FILLER_16_6
*494 FILLER_16_77
*495 FILLER_16_83
*496 FILLER_16_88
*497 FILLER_16_98
*498 FILLER_17_108
*499 FILLER_17_121
*500 FILLER_17_133
*501 FILLER_17_145
*502 FILLER_17_157
*503 FILLER_17_165
*504 FILLER_17_169
*505 FILLER_17_17
*506 FILLER_17_181
*507 FILLER_17_193
*508 FILLER_17_205
*509 FILLER_17_217
*510 FILLER_17_223
*511 FILLER_17_225
*512 FILLER_17_237
*513 FILLER_17_249
*514 FILLER_17_261
*515 FILLER_17_273
*516 FILLER_17_279
*517 FILLER_17_281
*518 FILLER_17_293
*519 FILLER_17_30
*520 FILLER_17_37
*521 FILLER_17_49
*522 FILLER_17_55
*523 FILLER_17_57
*524 FILLER_17_6
*525 FILLER_17_81
*526 FILLER_17_89
*527 FILLER_18_101
*528 FILLER_18_11
*529 FILLER_18_113
*530 FILLER_18_125
*531 FILLER_18_137
*532 FILLER_18_141
*533 FILLER_18_153
*534 FILLER_18_165
*535 FILLER_18_177
*536 FILLER_18_189
*537 FILLER_18_19
*538 FILLER_18_195
*539 FILLER_18_197
*540 FILLER_18_209
*541 FILLER_18_221
*542 FILLER_18_233
*543 FILLER_18_24
*544 FILLER_18_245
*545 FILLER_18_251
*546 FILLER_18_253
*547 FILLER_18_265
*548 FILLER_18_277
*549 FILLER_18_289
*550 FILLER_18_297
*551 FILLER_18_3
*552 FILLER_18_35
*553 FILLER_18_44
*554 FILLER_18_55
*555 FILLER_18_63
*556 FILLER_18_70
*557 FILLER_18_80
*558 FILLER_19_106
*559 FILLER_19_113
*560 FILLER_19_125
*561 FILLER_19_137
*562 FILLER_19_149
*563 FILLER_19_161
*564 FILLER_19_167
*565 FILLER_19_169
*566 FILLER_19_17
*567 FILLER_19_181
*568 FILLER_19_193
*569 FILLER_19_205
*570 FILLER_19_217
*571 FILLER_19_223
*572 FILLER_19_225
*573 FILLER_19_237
*574 FILLER_19_249
*575 FILLER_19_25
*576 FILLER_19_261
*577 FILLER_19_273
*578 FILLER_19_279
*579 FILLER_19_281
*580 FILLER_19_293
*581 FILLER_19_30
*582 FILLER_19_39
*583 FILLER_19_52
*584 FILLER_19_6
*585 FILLER_19_73
*586 FILLER_19_87
*587 FILLER_19_99
*588 FILLER_1_101
*589 FILLER_1_109
*590 FILLER_1_113
*591 FILLER_1_125
*592 FILLER_1_137
*593 FILLER_1_149
*594 FILLER_1_15
*595 FILLER_1_161
*596 FILLER_1_167
*597 FILLER_1_169
*598 FILLER_1_181
*599 FILLER_1_193
*600 FILLER_1_205
*601 FILLER_1_217
*602 FILLER_1_223
*603 FILLER_1_225
*604 FILLER_1_237
*605 FILLER_1_249
*606 FILLER_1_261
*607 FILLER_1_27
*608 FILLER_1_273
*609 FILLER_1_279
*610 FILLER_1_281
*611 FILLER_1_293
*612 FILLER_1_3
*613 FILLER_1_39
*614 FILLER_1_51
*615 FILLER_1_55
*616 FILLER_1_62
*617 FILLER_1_70
*618 FILLER_1_89
*619 FILLER_20_10
*620 FILLER_20_101
*621 FILLER_20_113
*622 FILLER_20_125
*623 FILLER_20_137
*624 FILLER_20_141
*625 FILLER_20_153
*626 FILLER_20_165
*627 FILLER_20_177
*628 FILLER_20_189
*629 FILLER_20_195
*630 FILLER_20_197
*631 FILLER_20_209
*632 FILLER_20_221
*633 FILLER_20_233
*634 FILLER_20_24
*635 FILLER_20_245
*636 FILLER_20_251
*637 FILLER_20_253
*638 FILLER_20_265
*639 FILLER_20_277
*640 FILLER_20_289
*641 FILLER_20_29
*642 FILLER_20_297
*643 FILLER_20_37
*644 FILLER_20_57
*645 FILLER_20_77
*646 FILLER_20_83
*647 FILLER_21_105
*648 FILLER_21_111
*649 FILLER_21_113
*650 FILLER_21_125
*651 FILLER_21_13
*652 FILLER_21_137
*653 FILLER_21_149
*654 FILLER_21_161
*655 FILLER_21_167
*656 FILLER_21_169
*657 FILLER_21_181
*658 FILLER_21_193
*659 FILLER_21_205
*660 FILLER_21_217
*661 FILLER_21_22
*662 FILLER_21_223
*663 FILLER_21_225
*664 FILLER_21_237
*665 FILLER_21_249
*666 FILLER_21_261
*667 FILLER_21_273
*668 FILLER_21_279
*669 FILLER_21_281
*670 FILLER_21_293
*671 FILLER_21_30
*672 FILLER_21_38
*673 FILLER_21_51
*674 FILLER_21_55
*675 FILLER_21_57
*676 FILLER_21_6
*677 FILLER_21_69
*678 FILLER_21_93
*679 FILLER_22_109
*680 FILLER_22_121
*681 FILLER_22_133
*682 FILLER_22_139
*683 FILLER_22_141
*684 FILLER_22_15
*685 FILLER_22_153
*686 FILLER_22_165
*687 FILLER_22_177
*688 FILLER_22_189
*689 FILLER_22_195
*690 FILLER_22_197
*691 FILLER_22_209
*692 FILLER_22_221
*693 FILLER_22_233
*694 FILLER_22_24
*695 FILLER_22_245
*696 FILLER_22_251
*697 FILLER_22_253
*698 FILLER_22_265
*699 FILLER_22_277
*700 FILLER_22_289
*701 FILLER_22_29
*702 FILLER_22_297
*703 FILLER_22_3
*704 FILLER_22_41
*705 FILLER_22_65
*706 FILLER_22_7
*707 FILLER_22_75
*708 FILLER_22_83
*709 FILLER_22_90
*710 FILLER_22_97
*711 FILLER_23_101
*712 FILLER_23_109
*713 FILLER_23_11
*714 FILLER_23_113
*715 FILLER_23_125
*716 FILLER_23_137
*717 FILLER_23_149
*718 FILLER_23_161
*719 FILLER_23_167
*720 FILLER_23_169
*721 FILLER_23_181
*722 FILLER_23_193
*723 FILLER_23_205
*724 FILLER_23_217
*725 FILLER_23_223
*726 FILLER_23_225
*727 FILLER_23_23
*728 FILLER_23_237
*729 FILLER_23_249
*730 FILLER_23_261
*731 FILLER_23_273
*732 FILLER_23_279
*733 FILLER_23_281
*734 FILLER_23_293
*735 FILLER_23_32
*736 FILLER_23_43
*737 FILLER_23_52
*738 FILLER_23_62
*739 FILLER_23_70
*740 FILLER_23_77
*741 FILLER_23_81
*742 FILLER_23_89
*743 FILLER_24_10
*744 FILLER_24_105
*745 FILLER_24_117
*746 FILLER_24_129
*747 FILLER_24_137
*748 FILLER_24_141
*749 FILLER_24_153
*750 FILLER_24_165
*751 FILLER_24_177
*752 FILLER_24_189
*753 FILLER_24_195
*754 FILLER_24_197
*755 FILLER_24_209
*756 FILLER_24_221
*757 FILLER_24_233
*758 FILLER_24_24
*759 FILLER_24_245
*760 FILLER_24_251
*761 FILLER_24_253
*762 FILLER_24_265
*763 FILLER_24_277
*764 FILLER_24_289
*765 FILLER_24_29
*766 FILLER_24_297
*767 FILLER_24_3
*768 FILLER_24_43
*769 FILLER_24_65
*770 FILLER_24_80
*771 FILLER_24_85
*772 FILLER_25_110
*773 FILLER_25_113
*774 FILLER_25_125
*775 FILLER_25_137
*776 FILLER_25_149
*777 FILLER_25_161
*778 FILLER_25_167
*779 FILLER_25_169
*780 FILLER_25_181
*781 FILLER_25_193
*782 FILLER_25_205
*783 FILLER_25_217
*784 FILLER_25_223
*785 FILLER_25_225
*786 FILLER_25_237
*787 FILLER_25_249
*788 FILLER_25_261
*789 FILLER_25_273
*790 FILLER_25_279
*791 FILLER_25_281
*792 FILLER_25_293
*793 FILLER_25_3
*794 FILLER_25_30
*795 FILLER_25_36
*796 FILLER_25_45
*797 FILLER_25_53
*798 FILLER_25_60
*799 FILLER_25_66
*800 FILLER_25_74
*801 FILLER_25_86
*802 FILLER_25_98
*803 FILLER_26_105
*804 FILLER_26_11
*805 FILLER_26_117
*806 FILLER_26_129
*807 FILLER_26_137
*808 FILLER_26_141
*809 FILLER_26_153
*810 FILLER_26_165
*811 FILLER_26_177
*812 FILLER_26_189
*813 FILLER_26_195
*814 FILLER_26_197
*815 FILLER_26_209
*816 FILLER_26_22
*817 FILLER_26_221
*818 FILLER_26_233
*819 FILLER_26_245
*820 FILLER_26_251
*821 FILLER_26_253
*822 FILLER_26_265
*823 FILLER_26_277
*824 FILLER_26_289
*825 FILLER_26_297
*826 FILLER_26_3
*827 FILLER_26_32
*828 FILLER_26_46
*829 FILLER_26_68
*830 FILLER_26_80
*831 FILLER_26_85
*832 FILLER_26_95
*833 FILLER_27_100
*834 FILLER_27_113
*835 FILLER_27_125
*836 FILLER_27_13
*837 FILLER_27_137
*838 FILLER_27_149
*839 FILLER_27_161
*840 FILLER_27_167
*841 FILLER_27_169
*842 FILLER_27_181
*843 FILLER_27_193
*844 FILLER_27_205
*845 FILLER_27_217
*846 FILLER_27_223
*847 FILLER_27_225
*848 FILLER_27_237
*849 FILLER_27_249
*850 FILLER_27_261
*851 FILLER_27_273
*852 FILLER_27_279
*853 FILLER_27_281
*854 FILLER_27_293
*855 FILLER_27_3
*856 FILLER_27_33
*857 FILLER_27_39
*858 FILLER_27_48
*859 FILLER_27_57
*860 FILLER_27_68
*861 FILLER_27_7
*862 FILLER_27_75
*863 FILLER_27_83
*864 FILLER_28_108
*865 FILLER_28_120
*866 FILLER_28_132
*867 FILLER_28_141
*868 FILLER_28_153
*869 FILLER_28_165
*870 FILLER_28_177
*871 FILLER_28_189
*872 FILLER_28_19
*873 FILLER_28_195
*874 FILLER_28_197
*875 FILLER_28_209
*876 FILLER_28_221
*877 FILLER_28_233
*878 FILLER_28_245
*879 FILLER_28_251
*880 FILLER_28_253
*881 FILLER_28_265
*882 FILLER_28_27
*883 FILLER_28_277
*884 FILLER_28_289
*885 FILLER_28_29
*886 FILLER_28_297
*887 FILLER_28_34
*888 FILLER_28_46
*889 FILLER_28_55
*890 FILLER_28_59
*891 FILLER_28_76
*892 FILLER_28_85
*893 FILLER_28_91
*894 FILLER_29_105
*895 FILLER_29_11
*896 FILLER_29_111
*897 FILLER_29_121
*898 FILLER_29_133
*899 FILLER_29_145
*900 FILLER_29_157
*901 FILLER_29_165
*902 FILLER_29_169
*903 FILLER_29_17
*904 FILLER_29_181
*905 FILLER_29_193
*906 FILLER_29_205
*907 FILLER_29_217
*908 FILLER_29_223
*909 FILLER_29_225
*910 FILLER_29_237
*911 FILLER_29_249
*912 FILLER_29_261
*913 FILLER_29_273
*914 FILLER_29_279
*915 FILLER_29_281
*916 FILLER_29_29
*917 FILLER_29_293
*918 FILLER_29_3
*919 FILLER_29_41
*920 FILLER_29_52
*921 FILLER_29_57
*922 FILLER_29_67
*923 FILLER_29_87
*924 FILLER_29_95
*925 FILLER_2_101
*926 FILLER_2_113
*927 FILLER_2_125
*928 FILLER_2_137
*929 FILLER_2_141
*930 FILLER_2_15
*931 FILLER_2_153
*932 FILLER_2_165
*933 FILLER_2_177
*934 FILLER_2_189
*935 FILLER_2_195
*936 FILLER_2_197
*937 FILLER_2_209
*938 FILLER_2_221
*939 FILLER_2_233
*940 FILLER_2_245
*941 FILLER_2_251
*942 FILLER_2_253
*943 FILLER_2_265
*944 FILLER_2_27
*945 FILLER_2_277
*946 FILLER_2_289
*947 FILLER_2_29
*948 FILLER_2_297
*949 FILLER_2_3
*950 FILLER_2_35
*951 FILLER_2_52
*952 FILLER_2_72
*953 FILLER_2_79
*954 FILLER_2_83
*955 FILLER_30_110
*956 FILLER_30_122
*957 FILLER_30_134
*958 FILLER_30_141
*959 FILLER_30_153
*960 FILLER_30_165
*961 FILLER_30_177
*962 FILLER_30_189
*963 FILLER_30_195
*964 FILLER_30_197
*965 FILLER_30_209
*966 FILLER_30_221
*967 FILLER_30_233
*968 FILLER_30_24
*969 FILLER_30_245
*970 FILLER_30_251
*971 FILLER_30_253
*972 FILLER_30_265
*973 FILLER_30_277
*974 FILLER_30_289
*975 FILLER_30_29
*976 FILLER_30_297
*977 FILLER_30_37
*978 FILLER_30_41
*979 FILLER_30_58
*980 FILLER_30_78
*981 FILLER_30_85
*982 FILLER_30_93
*983 FILLER_31_102
*984 FILLER_31_110
*985 FILLER_31_113
*986 FILLER_31_125
*987 FILLER_31_13
*988 FILLER_31_137
*989 FILLER_31_149
*990 FILLER_31_161
*991 FILLER_31_167
*992 FILLER_31_169
*993 FILLER_31_181
*994 FILLER_31_193
*995 FILLER_31_205
*996 FILLER_31_217
*997 FILLER_31_223
*998 FILLER_31_225
*999 FILLER_31_237
*1000 FILLER_31_249
*1001 FILLER_31_261
*1002 FILLER_31_273
*1003 FILLER_31_279
*1004 FILLER_31_281
*1005 FILLER_31_293
*1006 FILLER_31_3
*1007 FILLER_31_38
*1008 FILLER_31_49
*1009 FILLER_31_55
*1010 FILLER_31_57
*1011 FILLER_31_65
*1012 FILLER_31_82
*1013 FILLER_32_110
*1014 FILLER_32_122
*1015 FILLER_32_134
*1016 FILLER_32_141
*1017 FILLER_32_153
*1018 FILLER_32_165
*1019 FILLER_32_177
*1020 FILLER_32_189
*1021 FILLER_32_195
*1022 FILLER_32_197
*1023 FILLER_32_209
*1024 FILLER_32_221
*1025 FILLER_32_233
*1026 FILLER_32_24
*1027 FILLER_32_245
*1028 FILLER_32_251
*1029 FILLER_32_253
*1030 FILLER_32_265
*1031 FILLER_32_277
*1032 FILLER_32_289
*1033 FILLER_32_29
*1034 FILLER_32_297
*1035 FILLER_32_33
*1036 FILLER_32_37
*1037 FILLER_32_45
*1038 FILLER_32_63
*1039 FILLER_32_71
*1040 FILLER_32_80
*1041 FILLER_32_85
*1042 FILLER_32_89
*1043 FILLER_32_98
*1044 FILLER_33_100
*1045 FILLER_33_113
*1046 FILLER_33_125
*1047 FILLER_33_137
*1048 FILLER_33_149
*1049 FILLER_33_15
*1050 FILLER_33_161
*1051 FILLER_33_167
*1052 FILLER_33_169
*1053 FILLER_33_181
*1054 FILLER_33_193
*1055 FILLER_33_205
*1056 FILLER_33_217
*1057 FILLER_33_223
*1058 FILLER_33_225
*1059 FILLER_33_237
*1060 FILLER_33_249
*1061 FILLER_33_261
*1062 FILLER_33_27
*1063 FILLER_33_273
*1064 FILLER_33_279
*1065 FILLER_33_281
*1066 FILLER_33_293
*1067 FILLER_33_3
*1068 FILLER_33_33
*1069 FILLER_33_50
*1070 FILLER_33_57
*1071 FILLER_33_63
*1072 FILLER_33_73
*1073 FILLER_33_81
*1074 FILLER_33_90
*1075 FILLER_34_109
*1076 FILLER_34_121
*1077 FILLER_34_133
*1078 FILLER_34_139
*1079 FILLER_34_141
*1080 FILLER_34_153
*1081 FILLER_34_165
*1082 FILLER_34_177
*1083 FILLER_34_189
*1084 FILLER_34_195
*1085 FILLER_34_197
*1086 FILLER_34_209
*1087 FILLER_34_21
*1088 FILLER_34_221
*1089 FILLER_34_233
*1090 FILLER_34_245
*1091 FILLER_34_251
*1092 FILLER_34_253
*1093 FILLER_34_265
*1094 FILLER_34_27
*1095 FILLER_34_277
*1096 FILLER_34_289
*1097 FILLER_34_297
*1098 FILLER_34_3
*1099 FILLER_34_36
*1100 FILLER_34_48
*1101 FILLER_34_60
*1102 FILLER_34_72
*1103 FILLER_34_85
*1104 FILLER_34_9
*1105 FILLER_34_97
*1106 FILLER_35_105
*1107 FILLER_35_11
*1108 FILLER_35_111
*1109 FILLER_35_113
*1110 FILLER_35_125
*1111 FILLER_35_137
*1112 FILLER_35_149
*1113 FILLER_35_161
*1114 FILLER_35_167
*1115 FILLER_35_169
*1116 FILLER_35_181
*1117 FILLER_35_193
*1118 FILLER_35_205
*1119 FILLER_35_217
*1120 FILLER_35_223
*1121 FILLER_35_225
*1122 FILLER_35_237
*1123 FILLER_35_249
*1124 FILLER_35_261
*1125 FILLER_35_273
*1126 FILLER_35_279
*1127 FILLER_35_281
*1128 FILLER_35_293
*1129 FILLER_35_3
*1130 FILLER_35_33
*1131 FILLER_35_45
*1132 FILLER_35_53
*1133 FILLER_35_57
*1134 FILLER_35_69
*1135 FILLER_35_81
*1136 FILLER_35_93
*1137 FILLER_36_109
*1138 FILLER_36_121
*1139 FILLER_36_133
*1140 FILLER_36_139
*1141 FILLER_36_141
*1142 FILLER_36_153
*1143 FILLER_36_165
*1144 FILLER_36_177
*1145 FILLER_36_189
*1146 FILLER_36_195
*1147 FILLER_36_197
*1148 FILLER_36_209
*1149 FILLER_36_22
*1150 FILLER_36_221
*1151 FILLER_36_233
*1152 FILLER_36_245
*1153 FILLER_36_251
*1154 FILLER_36_253
*1155 FILLER_36_265
*1156 FILLER_36_277
*1157 FILLER_36_289
*1158 FILLER_36_297
*1159 FILLER_36_3
*1160 FILLER_36_36
*1161 FILLER_36_48
*1162 FILLER_36_60
*1163 FILLER_36_72
*1164 FILLER_36_85
*1165 FILLER_36_97
*1166 FILLER_37_105
*1167 FILLER_37_111
*1168 FILLER_37_113
*1169 FILLER_37_125
*1170 FILLER_37_137
*1171 FILLER_37_149
*1172 FILLER_37_161
*1173 FILLER_37_167
*1174 FILLER_37_169
*1175 FILLER_37_181
*1176 FILLER_37_193
*1177 FILLER_37_205
*1178 FILLER_37_217
*1179 FILLER_37_223
*1180 FILLER_37_225
*1181 FILLER_37_237
*1182 FILLER_37_249
*1183 FILLER_37_261
*1184 FILLER_37_273
*1185 FILLER_37_279
*1186 FILLER_37_281
*1187 FILLER_37_293
*1188 FILLER_37_3
*1189 FILLER_37_33
*1190 FILLER_37_45
*1191 FILLER_37_53
*1192 FILLER_37_57
*1193 FILLER_37_69
*1194 FILLER_37_81
*1195 FILLER_37_9
*1196 FILLER_37_93
*1197 FILLER_38_109
*1198 FILLER_38_121
*1199 FILLER_38_133
*1200 FILLER_38_139
*1201 FILLER_38_141
*1202 FILLER_38_153
*1203 FILLER_38_165
*1204 FILLER_38_177
*1205 FILLER_38_189
*1206 FILLER_38_195
*1207 FILLER_38_197
*1208 FILLER_38_209
*1209 FILLER_38_21
*1210 FILLER_38_221
*1211 FILLER_38_233
*1212 FILLER_38_245
*1213 FILLER_38_251
*1214 FILLER_38_253
*1215 FILLER_38_265
*1216 FILLER_38_27
*1217 FILLER_38_277
*1218 FILLER_38_289
*1219 FILLER_38_29
*1220 FILLER_38_297
*1221 FILLER_38_3
*1222 FILLER_38_41
*1223 FILLER_38_53
*1224 FILLER_38_65
*1225 FILLER_38_77
*1226 FILLER_38_83
*1227 FILLER_38_85
*1228 FILLER_38_9
*1229 FILLER_38_97
*1230 FILLER_39_105
*1231 FILLER_39_111
*1232 FILLER_39_113
*1233 FILLER_39_125
*1234 FILLER_39_137
*1235 FILLER_39_149
*1236 FILLER_39_15
*1237 FILLER_39_161
*1238 FILLER_39_167
*1239 FILLER_39_169
*1240 FILLER_39_181
*1241 FILLER_39_193
*1242 FILLER_39_205
*1243 FILLER_39_217
*1244 FILLER_39_223
*1245 FILLER_39_225
*1246 FILLER_39_237
*1247 FILLER_39_249
*1248 FILLER_39_261
*1249 FILLER_39_27
*1250 FILLER_39_273
*1251 FILLER_39_279
*1252 FILLER_39_281
*1253 FILLER_39_293
*1254 FILLER_39_3
*1255 FILLER_39_39
*1256 FILLER_39_51
*1257 FILLER_39_55
*1258 FILLER_39_57
*1259 FILLER_39_69
*1260 FILLER_39_81
*1261 FILLER_39_93
*1262 FILLER_3_104
*1263 FILLER_3_113
*1264 FILLER_3_125
*1265 FILLER_3_137
*1266 FILLER_3_149
*1267 FILLER_3_15
*1268 FILLER_3_161
*1269 FILLER_3_167
*1270 FILLER_3_169
*1271 FILLER_3_181
*1272 FILLER_3_193
*1273 FILLER_3_205
*1274 FILLER_3_217
*1275 FILLER_3_223
*1276 FILLER_3_225
*1277 FILLER_3_237
*1278 FILLER_3_249
*1279 FILLER_3_261
*1280 FILLER_3_27
*1281 FILLER_3_273
*1282 FILLER_3_279
*1283 FILLER_3_281
*1284 FILLER_3_293
*1285 FILLER_3_3
*1286 FILLER_3_39
*1287 FILLER_3_45
*1288 FILLER_3_52
*1289 FILLER_3_65
*1290 FILLER_3_72
*1291 FILLER_3_92
*1292 FILLER_40_109
*1293 FILLER_40_121
*1294 FILLER_40_133
*1295 FILLER_40_139
*1296 FILLER_40_141
*1297 FILLER_40_15
*1298 FILLER_40_153
*1299 FILLER_40_165
*1300 FILLER_40_177
*1301 FILLER_40_189
*1302 FILLER_40_195
*1303 FILLER_40_197
*1304 FILLER_40_209
*1305 FILLER_40_221
*1306 FILLER_40_233
*1307 FILLER_40_245
*1308 FILLER_40_251
*1309 FILLER_40_253
*1310 FILLER_40_265
*1311 FILLER_40_27
*1312 FILLER_40_277
*1313 FILLER_40_289
*1314 FILLER_40_29
*1315 FILLER_40_297
*1316 FILLER_40_3
*1317 FILLER_40_41
*1318 FILLER_40_53
*1319 FILLER_40_65
*1320 FILLER_40_77
*1321 FILLER_40_83
*1322 FILLER_40_85
*1323 FILLER_40_97
*1324 FILLER_41_105
*1325 FILLER_41_111
*1326 FILLER_41_113
*1327 FILLER_41_125
*1328 FILLER_41_137
*1329 FILLER_41_149
*1330 FILLER_41_161
*1331 FILLER_41_167
*1332 FILLER_41_169
*1333 FILLER_41_181
*1334 FILLER_41_193
*1335 FILLER_41_205
*1336 FILLER_41_21
*1337 FILLER_41_217
*1338 FILLER_41_223
*1339 FILLER_41_225
*1340 FILLER_41_237
*1341 FILLER_41_249
*1342 FILLER_41_261
*1343 FILLER_41_273
*1344 FILLER_41_279
*1345 FILLER_41_281
*1346 FILLER_41_293
*1347 FILLER_41_3
*1348 FILLER_41_33
*1349 FILLER_41_45
*1350 FILLER_41_53
*1351 FILLER_41_57
*1352 FILLER_41_69
*1353 FILLER_41_81
*1354 FILLER_41_9
*1355 FILLER_41_93
*1356 FILLER_42_109
*1357 FILLER_42_121
*1358 FILLER_42_133
*1359 FILLER_42_139
*1360 FILLER_42_141
*1361 FILLER_42_15
*1362 FILLER_42_153
*1363 FILLER_42_165
*1364 FILLER_42_177
*1365 FILLER_42_189
*1366 FILLER_42_195
*1367 FILLER_42_197
*1368 FILLER_42_209
*1369 FILLER_42_221
*1370 FILLER_42_233
*1371 FILLER_42_245
*1372 FILLER_42_251
*1373 FILLER_42_253
*1374 FILLER_42_265
*1375 FILLER_42_27
*1376 FILLER_42_277
*1377 FILLER_42_289
*1378 FILLER_42_29
*1379 FILLER_42_297
*1380 FILLER_42_3
*1381 FILLER_42_41
*1382 FILLER_42_53
*1383 FILLER_42_65
*1384 FILLER_42_77
*1385 FILLER_42_83
*1386 FILLER_42_85
*1387 FILLER_42_97
*1388 FILLER_43_105
*1389 FILLER_43_111
*1390 FILLER_43_113
*1391 FILLER_43_125
*1392 FILLER_43_137
*1393 FILLER_43_149
*1394 FILLER_43_15
*1395 FILLER_43_161
*1396 FILLER_43_167
*1397 FILLER_43_169
*1398 FILLER_43_181
*1399 FILLER_43_193
*1400 FILLER_43_205
*1401 FILLER_43_217
*1402 FILLER_43_223
*1403 FILLER_43_225
*1404 FILLER_43_237
*1405 FILLER_43_249
*1406 FILLER_43_261
*1407 FILLER_43_27
*1408 FILLER_43_273
*1409 FILLER_43_279
*1410 FILLER_43_281
*1411 FILLER_43_293
*1412 FILLER_43_3
*1413 FILLER_43_39
*1414 FILLER_43_51
*1415 FILLER_43_55
*1416 FILLER_43_57
*1417 FILLER_43_69
*1418 FILLER_43_81
*1419 FILLER_43_93
*1420 FILLER_44_109
*1421 FILLER_44_121
*1422 FILLER_44_133
*1423 FILLER_44_139
*1424 FILLER_44_141
*1425 FILLER_44_15
*1426 FILLER_44_153
*1427 FILLER_44_165
*1428 FILLER_44_177
*1429 FILLER_44_189
*1430 FILLER_44_195
*1431 FILLER_44_197
*1432 FILLER_44_209
*1433 FILLER_44_221
*1434 FILLER_44_233
*1435 FILLER_44_245
*1436 FILLER_44_251
*1437 FILLER_44_253
*1438 FILLER_44_265
*1439 FILLER_44_27
*1440 FILLER_44_277
*1441 FILLER_44_289
*1442 FILLER_44_29
*1443 FILLER_44_297
*1444 FILLER_44_3
*1445 FILLER_44_41
*1446 FILLER_44_53
*1447 FILLER_44_65
*1448 FILLER_44_77
*1449 FILLER_44_83
*1450 FILLER_44_85
*1451 FILLER_44_97
*1452 FILLER_45_105
*1453 FILLER_45_111
*1454 FILLER_45_113
*1455 FILLER_45_125
*1456 FILLER_45_137
*1457 FILLER_45_149
*1458 FILLER_45_161
*1459 FILLER_45_167
*1460 FILLER_45_169
*1461 FILLER_45_181
*1462 FILLER_45_193
*1463 FILLER_45_205
*1464 FILLER_45_21
*1465 FILLER_45_217
*1466 FILLER_45_223
*1467 FILLER_45_225
*1468 FILLER_45_237
*1469 FILLER_45_249
*1470 FILLER_45_261
*1471 FILLER_45_273
*1472 FILLER_45_279
*1473 FILLER_45_281
*1474 FILLER_45_293
*1475 FILLER_45_3
*1476 FILLER_45_33
*1477 FILLER_45_45
*1478 FILLER_45_53
*1479 FILLER_45_57
*1480 FILLER_45_69
*1481 FILLER_45_81
*1482 FILLER_45_9
*1483 FILLER_45_93
*1484 FILLER_46_109
*1485 FILLER_46_121
*1486 FILLER_46_133
*1487 FILLER_46_139
*1488 FILLER_46_141
*1489 FILLER_46_15
*1490 FILLER_46_153
*1491 FILLER_46_165
*1492 FILLER_46_177
*1493 FILLER_46_189
*1494 FILLER_46_195
*1495 FILLER_46_197
*1496 FILLER_46_209
*1497 FILLER_46_221
*1498 FILLER_46_233
*1499 FILLER_46_245
*1500 FILLER_46_251
*1501 FILLER_46_253
*1502 FILLER_46_265
*1503 FILLER_46_27
*1504 FILLER_46_277
*1505 FILLER_46_289
*1506 FILLER_46_29
*1507 FILLER_46_297
*1508 FILLER_46_3
*1509 FILLER_46_41
*1510 FILLER_46_53
*1511 FILLER_46_65
*1512 FILLER_46_77
*1513 FILLER_46_83
*1514 FILLER_46_85
*1515 FILLER_46_97
*1516 FILLER_47_105
*1517 FILLER_47_111
*1518 FILLER_47_113
*1519 FILLER_47_125
*1520 FILLER_47_137
*1521 FILLER_47_149
*1522 FILLER_47_15
*1523 FILLER_47_161
*1524 FILLER_47_167
*1525 FILLER_47_169
*1526 FILLER_47_181
*1527 FILLER_47_193
*1528 FILLER_47_205
*1529 FILLER_47_217
*1530 FILLER_47_223
*1531 FILLER_47_225
*1532 FILLER_47_237
*1533 FILLER_47_249
*1534 FILLER_47_261
*1535 FILLER_47_27
*1536 FILLER_47_273
*1537 FILLER_47_279
*1538 FILLER_47_281
*1539 FILLER_47_293
*1540 FILLER_47_3
*1541 FILLER_47_39
*1542 FILLER_47_51
*1543 FILLER_47_55
*1544 FILLER_47_57
*1545 FILLER_47_69
*1546 FILLER_47_81
*1547 FILLER_47_93
*1548 FILLER_48_109
*1549 FILLER_48_121
*1550 FILLER_48_133
*1551 FILLER_48_139
*1552 FILLER_48_141
*1553 FILLER_48_153
*1554 FILLER_48_165
*1555 FILLER_48_177
*1556 FILLER_48_189
*1557 FILLER_48_195
*1558 FILLER_48_197
*1559 FILLER_48_209
*1560 FILLER_48_21
*1561 FILLER_48_221
*1562 FILLER_48_233
*1563 FILLER_48_245
*1564 FILLER_48_251
*1565 FILLER_48_253
*1566 FILLER_48_265
*1567 FILLER_48_27
*1568 FILLER_48_277
*1569 FILLER_48_289
*1570 FILLER_48_29
*1571 FILLER_48_297
*1572 FILLER_48_3
*1573 FILLER_48_41
*1574 FILLER_48_53
*1575 FILLER_48_65
*1576 FILLER_48_77
*1577 FILLER_48_83
*1578 FILLER_48_85
*1579 FILLER_48_9
*1580 FILLER_48_97
*1581 FILLER_49_105
*1582 FILLER_49_111
*1583 FILLER_49_113
*1584 FILLER_49_125
*1585 FILLER_49_137
*1586 FILLER_49_149
*1587 FILLER_49_15
*1588 FILLER_49_161
*1589 FILLER_49_167
*1590 FILLER_49_169
*1591 FILLER_49_181
*1592 FILLER_49_193
*1593 FILLER_49_205
*1594 FILLER_49_217
*1595 FILLER_49_223
*1596 FILLER_49_225
*1597 FILLER_49_237
*1598 FILLER_49_249
*1599 FILLER_49_261
*1600 FILLER_49_27
*1601 FILLER_49_273
*1602 FILLER_49_279
*1603 FILLER_49_281
*1604 FILLER_49_293
*1605 FILLER_49_3
*1606 FILLER_49_39
*1607 FILLER_49_51
*1608 FILLER_49_55
*1609 FILLER_49_57
*1610 FILLER_49_69
*1611 FILLER_49_81
*1612 FILLER_49_93
*1613 FILLER_4_109
*1614 FILLER_4_119
*1615 FILLER_4_131
*1616 FILLER_4_139
*1617 FILLER_4_141
*1618 FILLER_4_153
*1619 FILLER_4_165
*1620 FILLER_4_177
*1621 FILLER_4_18
*1622 FILLER_4_189
*1623 FILLER_4_195
*1624 FILLER_4_197
*1625 FILLER_4_209
*1626 FILLER_4_221
*1627 FILLER_4_233
*1628 FILLER_4_245
*1629 FILLER_4_251
*1630 FILLER_4_253
*1631 FILLER_4_26
*1632 FILLER_4_265
*1633 FILLER_4_277
*1634 FILLER_4_289
*1635 FILLER_4_29
*1636 FILLER_4_297
*1637 FILLER_4_41
*1638 FILLER_4_52
*1639 FILLER_4_56