*SPEF "ieee 1481-1999"
*DESIGN "user_module_341178481588044372"
*DATE "11:11:11 Fri 11 11, 1111"
*VENDOR "OpenRCX"
*PROGRAM "Parallel Extraction"
*VERSION "1.0"
*DESIGN_FLOW "NAME_SCOPE LOCAL" "PIN_CAP NONE"
*DIVIDER /
*DELIMITER :
*BUS_DELIMITER []
*T_UNIT 1 NS
*C_UNIT 1 PF
*R_UNIT 1 OHM
*L_UNIT 1 HENRY

*NAME_MAP
*1 io_in[0]
*2 io_in[1]
*3 io_in[2]
*4 io_in[3]
*5 io_in[4]
*6 io_in[5]
*7 io_in[6]
*8 io_in[7]
*9 io_out[0]
*10 io_out[1]
*11 io_out[2]
*12 io_out[3]
*13 io_out[4]
*14 io_out[5]
*15 io_out[6]
*16 io_out[7]
*19 _00_
*20 _01_
*21 _02_
*22 _03_
*23 flipflop1\.d
*24 flipflop1\.q
*25 flipflop10\.clk
*26 flipflop10\.d
*27 flipflop10\.q
*28 flipflop11\.d
*29 flipflop11\.q
*30 flipflop12\.d
*31 flipflop12\.q
*32 flipflop13\.d
*33 flipflop13\.q
*34 flipflop14\.q
*35 flipflop15\.q
*36 flipflop16\.q
*37 flipflop17\.q
*38 flipflop18\.q
*39 flipflop19\.q
*40 flipflop2\.d
*41 flipflop2\.q
*42 flipflop3\.d
*43 flipflop3\.q
*44 flipflop4\.d
*45 flipflop4\.q
*46 flipflop5\.d
*47 flipflop5\.q
*48 flipflop6\.d
*49 flipflop6\.q
*50 flipflop7\.d
*51 flipflop7\.q
*52 flipflop8\.d
*53 flipflop8\.q
*54 flipflop9\.d
*55 gate16\.out
*56 net1
*57 net2
*58 net3
*59 net4
*60 net5
*61 net6
*62 net7
*63 net8
*64 net9
*65 FILLER_0_109
*66 FILLER_0_113
*67 FILLER_0_125
*68 FILLER_0_137
*69 FILLER_0_141
*70 FILLER_0_15
*71 FILLER_0_153
*72 FILLER_0_165
*73 FILLER_0_169
*74 FILLER_0_181
*75 FILLER_0_193
*76 FILLER_0_197
*77 FILLER_0_209
*78 FILLER_0_221
*79 FILLER_0_225
*80 FILLER_0_237
*81 FILLER_0_249
*82 FILLER_0_253
*83 FILLER_0_265
*84 FILLER_0_27
*85 FILLER_0_277
*86 FILLER_0_281
*87 FILLER_0_29
*88 FILLER_0_293
*89 FILLER_0_3
*90 FILLER_0_41
*91 FILLER_0_53
*92 FILLER_0_57
*93 FILLER_0_69
*94 FILLER_0_81
*95 FILLER_0_85
*96 FILLER_0_97
*97 FILLER_10_109
*98 FILLER_10_121
*99 FILLER_10_133
*100 FILLER_10_139
*101 FILLER_10_141
*102 FILLER_10_153
*103 FILLER_10_165
*104 FILLER_10_177
*105 FILLER_10_189
*106 FILLER_10_195
*107 FILLER_10_197
*108 FILLER_10_209
*109 FILLER_10_221
*110 FILLER_10_233
*111 FILLER_10_24
*112 FILLER_10_245
*113 FILLER_10_251
*114 FILLER_10_253
*115 FILLER_10_265
*116 FILLER_10_277
*117 FILLER_10_289
*118 FILLER_10_297
*119 FILLER_10_3
*120 FILLER_10_33
*121 FILLER_10_41
*122 FILLER_10_53
*123 FILLER_10_65
*124 FILLER_10_7
*125 FILLER_10_77
*126 FILLER_10_83
*127 FILLER_10_85
*128 FILLER_10_97
*129 FILLER_11_105
*130 FILLER_11_111
*131 FILLER_11_113
*132 FILLER_11_125
*133 FILLER_11_137
*134 FILLER_11_149
*135 FILLER_11_161
*136 FILLER_11_167
*137 FILLER_11_169
*138 FILLER_11_181
*139 FILLER_11_193
*140 FILLER_11_205
*141 FILLER_11_217
*142 FILLER_11_223
*143 FILLER_11_225
*144 FILLER_11_237
*145 FILLER_11_249
*146 FILLER_11_26
*147 FILLER_11_261
*148 FILLER_11_273
*149 FILLER_11_279
*150 FILLER_11_281
*151 FILLER_11_293
*152 FILLER_11_34
*153 FILLER_11_42
*154 FILLER_11_54
*155 FILLER_11_57
*156 FILLER_11_6
*157 FILLER_11_69
*158 FILLER_11_81
*159 FILLER_11_93
*160 FILLER_12_109
*161 FILLER_12_121
*162 FILLER_12_133
*163 FILLER_12_139
*164 FILLER_12_141
*165 FILLER_12_153
*166 FILLER_12_165
*167 FILLER_12_177
*168 FILLER_12_189
*169 FILLER_12_195
*170 FILLER_12_197
*171 FILLER_12_209
*172 FILLER_12_221
*173 FILLER_12_233
*174 FILLER_12_24
*175 FILLER_12_245
*176 FILLER_12_251
*177 FILLER_12_253
*178 FILLER_12_265
*179 FILLER_12_277
*180 FILLER_12_289
*181 FILLER_12_297
*182 FILLER_12_3
*183 FILLER_12_36
*184 FILLER_12_44
*185 FILLER_12_56
*186 FILLER_12_68
*187 FILLER_12_7
*188 FILLER_12_80
*189 FILLER_12_85
*190 FILLER_12_97
*191 FILLER_13_105
*192 FILLER_13_111
*193 FILLER_13_113
*194 FILLER_13_125
*195 FILLER_13_137
*196 FILLER_13_149
*197 FILLER_13_161
*198 FILLER_13_167
*199 FILLER_13_169
*200 FILLER_13_181
*201 FILLER_13_193
*202 FILLER_13_205
*203 FILLER_13_217
*204 FILLER_13_223
*205 FILLER_13_225
*206 FILLER_13_237
*207 FILLER_13_249
*208 FILLER_13_25
*209 FILLER_13_261
*210 FILLER_13_273
*211 FILLER_13_279
*212 FILLER_13_281
*213 FILLER_13_293
*214 FILLER_13_3
*215 FILLER_13_45
*216 FILLER_13_53
*217 FILLER_13_57
*218 FILLER_13_69
*219 FILLER_13_81
*220 FILLER_13_93
*221 FILLER_14_109
*222 FILLER_14_121
*223 FILLER_14_133
*224 FILLER_14_139
*225 FILLER_14_141
*226 FILLER_14_153
*227 FILLER_14_165
*228 FILLER_14_177
*229 FILLER_14_189
*230 FILLER_14_195
*231 FILLER_14_197
*232 FILLER_14_209
*233 FILLER_14_221
*234 FILLER_14_233
*235 FILLER_14_24
*236 FILLER_14_245
*237 FILLER_14_251
*238 FILLER_14_253
*239 FILLER_14_265
*240 FILLER_14_277
*241 FILLER_14_289
*242 FILLER_14_297
*243 FILLER_14_3
*244 FILLER_14_33
*245 FILLER_14_45
*246 FILLER_14_57
*247 FILLER_14_69
*248 FILLER_14_7
*249 FILLER_14_81
*250 FILLER_14_85
*251 FILLER_14_97
*252 FILLER_15_105
*253 FILLER_15_111
*254 FILLER_15_113
*255 FILLER_15_125
*256 FILLER_15_137
*257 FILLER_15_149
*258 FILLER_15_161
*259 FILLER_15_167
*260 FILLER_15_169
*261 FILLER_15_18
*262 FILLER_15_181
*263 FILLER_15_193
*264 FILLER_15_205
*265 FILLER_15_217
*266 FILLER_15_223
*267 FILLER_15_225
*268 FILLER_15_237
*269 FILLER_15_249
*270 FILLER_15_26
*271 FILLER_15_261
*272 FILLER_15_273
*273 FILLER_15_279
*274 FILLER_15_281
*275 FILLER_15_293
*276 FILLER_15_38
*277 FILLER_15_50
*278 FILLER_15_57
*279 FILLER_15_69
*280 FILLER_15_7
*281 FILLER_15_81
*282 FILLER_15_93
*283 FILLER_16_109
*284 FILLER_16_121
*285 FILLER_16_133
*286 FILLER_16_139
*287 FILLER_16_141
*288 FILLER_16_153
*289 FILLER_16_165
*290 FILLER_16_177
*291 FILLER_16_189
*292 FILLER_16_195
*293 FILLER_16_197
*294 FILLER_16_209
*295 FILLER_16_221
*296 FILLER_16_233
*297 FILLER_16_24
*298 FILLER_16_245
*299 FILLER_16_251
*300 FILLER_16_253
*301 FILLER_16_265
*302 FILLER_16_277
*303 FILLER_16_289
*304 FILLER_16_29
*305 FILLER_16_297
*306 FILLER_16_3
*307 FILLER_16_41
*308 FILLER_16_53
*309 FILLER_16_65
*310 FILLER_16_7
*311 FILLER_16_77
*312 FILLER_16_83
*313 FILLER_16_85
*314 FILLER_16_97
*315 FILLER_17_105
*316 FILLER_17_111
*317 FILLER_17_113
*318 FILLER_17_125
*319 FILLER_17_137
*320 FILLER_17_149
*321 FILLER_17_161
*322 FILLER_17_167
*323 FILLER_17_169
*324 FILLER_17_181
*325 FILLER_17_19
*326 FILLER_17_193
*327 FILLER_17_205
*328 FILLER_17_217
*329 FILLER_17_223
*330 FILLER_17_225
*331 FILLER_17_237
*332 FILLER_17_249
*333 FILLER_17_26
*334 FILLER_17_261
*335 FILLER_17_273
*336 FILLER_17_279
*337 FILLER_17_281
*338 FILLER_17_293
*339 FILLER_17_38
*340 FILLER_17_50
*341 FILLER_17_57
*342 FILLER_17_6
*343 FILLER_17_69
*344 FILLER_17_81
*345 FILLER_17_93
*346 FILLER_18_109
*347 FILLER_18_121
*348 FILLER_18_133
*349 FILLER_18_139
*350 FILLER_18_141
*351 FILLER_18_153
*352 FILLER_18_165
*353 FILLER_18_177
*354 FILLER_18_189
*355 FILLER_18_195
*356 FILLER_18_197
*357 FILLER_18_209
*358 FILLER_18_221
*359 FILLER_18_233
*360 FILLER_18_24
*361 FILLER_18_245
*362 FILLER_18_251
*363 FILLER_18_253
*364 FILLER_18_265
*365 FILLER_18_277
*366 FILLER_18_289
*367 FILLER_18_29
*368 FILLER_18_297
*369 FILLER_18_3
*370 FILLER_18_41
*371 FILLER_18_53
*372 FILLER_18_65
*373 FILLER_18_7
*374 FILLER_18_77
*375 FILLER_18_83
*376 FILLER_18_85
*377 FILLER_18_97
*378 FILLER_19_105
*379 FILLER_19_111
*380 FILLER_19_113
*381 FILLER_19_125
*382 FILLER_19_137
*383 FILLER_19_149
*384 FILLER_19_161
*385 FILLER_19_167
*386 FILLER_19_169
*387 FILLER_19_17
*388 FILLER_19_181
*389 FILLER_19_193
*390 FILLER_19_205
*391 FILLER_19_217
*392 FILLER_19_223
*393 FILLER_19_225
*394 FILLER_19_237
*395 FILLER_19_249
*396 FILLER_19_25
*397 FILLER_19_261
*398 FILLER_19_273
*399 FILLER_19_279
*400 FILLER_19_281
*401 FILLER_19_293
*402 FILLER_19_37
*403 FILLER_19_49
*404 FILLER_19_55
*405 FILLER_19_57
*406 FILLER_19_6
*407 FILLER_19_69
*408 FILLER_19_81
*409 FILLER_19_93
*410 FILLER_1_105
*411 FILLER_1_111
*412 FILLER_1_113
*413 FILLER_1_125
*414 FILLER_1_137
*415 FILLER_1_149
*416 FILLER_1_15
*417 FILLER_1_161
*418 FILLER_1_167
*419 FILLER_1_169
*420 FILLER_1_181
*421 FILLER_1_193
*422 FILLER_1_205
*423 FILLER_1_217
*424 FILLER_1_223
*425 FILLER_1_225
*426 FILLER_1_237
*427 FILLER_1_249
*428 FILLER_1_261
*429 FILLER_1_27
*430 FILLER_1_273
*431 FILLER_1_279
*432 FILLER_1_281
*433 FILLER_1_293
*434 FILLER_1_3
*435 FILLER_1_39
*436 FILLER_1_51
*437 FILLER_1_55
*438 FILLER_1_57
*439 FILLER_1_69
*440 FILLER_1_81
*441 FILLER_1_93
*442 FILLER_20_109
*443 FILLER_20_121
*444 FILLER_20_133
*445 FILLER_20_139
*446 FILLER_20_141
*447 FILLER_20_153
*448 FILLER_20_165
*449 FILLER_20_177
*450 FILLER_20_189
*451 FILLER_20_195
*452 FILLER_20_197
*453 FILLER_20_209
*454 FILLER_20_221
*455 FILLER_20_233
*456 FILLER_20_24
*457 FILLER_20_245
*458 FILLER_20_251
*459 FILLER_20_253
*460 FILLER_20_265
*461 FILLER_20_277
*462 FILLER_20_289
*463 FILLER_20_29
*464 FILLER_20_297
*465 FILLER_20_3
*466 FILLER_20_41
*467 FILLER_20_53
*468 FILLER_20_65
*469 FILLER_20_7
*470 FILLER_20_77
*471 FILLER_20_83
*472 FILLER_20_85
*473 FILLER_20_97
*474 FILLER_21_105
*475 FILLER_21_11
*476 FILLER_21_111
*477 FILLER_21_113
*478 FILLER_21_125
*479 FILLER_21_137
*480 FILLER_21_149
*481 FILLER_21_16
*482 FILLER_21_161
*483 FILLER_21_167
*484 FILLER_21_169
*485 FILLER_21_181
*486 FILLER_21_193
*487 FILLER_21_205
*488 FILLER_21_217
*489 FILLER_21_223
*490 FILLER_21_225
*491 FILLER_21_237
*492 FILLER_21_24
*493 FILLER_21_249
*494 FILLER_21_261
*495 FILLER_21_273
*496 FILLER_21_279
*497 FILLER_21_281
*498 FILLER_21_293
*499 FILLER_21_3
*500 FILLER_21_36
*501 FILLER_21_48
*502 FILLER_21_57
*503 FILLER_21_69
*504 FILLER_21_81
*505 FILLER_21_93
*506 FILLER_22_109
*507 FILLER_22_121
*508 FILLER_22_133
*509 FILLER_22_139
*510 FILLER_22_141
*511 FILLER_22_15
*512 FILLER_22_153
*513 FILLER_22_165
*514 FILLER_22_177
*515 FILLER_22_189
*516 FILLER_22_195
*517 FILLER_22_197
*518 FILLER_22_209
*519 FILLER_22_221
*520 FILLER_22_233
*521 FILLER_22_245
*522 FILLER_22_251
*523 FILLER_22_253
*524 FILLER_22_265
*525 FILLER_22_27
*526 FILLER_22_277
*527 FILLER_22_289
*528 FILLER_22_29
*529 FILLER_22_297
*530 FILLER_22_3
*531 FILLER_22_41
*532 FILLER_22_53
*533 FILLER_22_65
*534 FILLER_22_77
*535 FILLER_22_83
*536 FILLER_22_85
*537 FILLER_22_97
*538 FILLER_23_105
*539 FILLER_23_111
*540 FILLER_23_113
*541 FILLER_23_125
*542 FILLER_23_137
*543 FILLER_23_149
*544 FILLER_23_15
*545 FILLER_23_161
*546 FILLER_23_167
*547 FILLER_23_169
*548 FILLER_23_181
*549 FILLER_23_193
*550 FILLER_23_205
*551 FILLER_23_217
*552 FILLER_23_223
*553 FILLER_23_225
*554 FILLER_23_237
*555 FILLER_23_249
*556 FILLER_23_261
*557 FILLER_23_27
*558 FILLER_23_273
*559 FILLER_23_279
*560 FILLER_23_281
*561 FILLER_23_293
*562 FILLER_23_3
*563 FILLER_23_39
*564 FILLER_23_51
*565 FILLER_23_55
*566 FILLER_23_57
*567 FILLER_23_69
*568 FILLER_23_81
*569 FILLER_23_93
*570 FILLER_24_109
*571 FILLER_24_121
*572 FILLER_24_133
*573 FILLER_24_139
*574 FILLER_24_141
*575 FILLER_24_153
*576 FILLER_24_165
*577 FILLER_24_177
*578 FILLER_24_18
*579 FILLER_24_189
*580 FILLER_24_195
*581 FILLER_24_197
*582 FILLER_24_209
*583 FILLER_24_221
*584 FILLER_24_233
*585 FILLER_24_245
*586 FILLER_24_251
*587 FILLER_24_253
*588 FILLER_24_26
*589 FILLER_24_265
*590 FILLER_24_277
*591 FILLER_24_289
*592 FILLER_24_29
*593 FILLER_24_297
*594 FILLER_24_41
*595 FILLER_24_53
*596 FILLER_24_6
*597 FILLER_24_65
*598 FILLER_24_77
*599 FILLER_24_83
*600 FILLER_24_85
*601 FILLER_24_97
*602 FILLER_25_105
*603 FILLER_25_111
*604 FILLER_25_113
*605 FILLER_25_125
*606 FILLER_25_137
*607 FILLER_25_149
*608 FILLER_25_15
*609 FILLER_25_161
*610 FILLER_25_167
*611 FILLER_25_169
*612 FILLER_25_181
*613 FILLER_25_193
*614 FILLER_25_205
*615 FILLER_25_217
*616 FILLER_25_223
*617 FILLER_25_225
*618 FILLER_25_237
*619 FILLER_25_249
*620 FILLER_25_261
*621 FILLER_25_27
*622 FILLER_25_273
*623 FILLER_25_279
*624 FILLER_25_281
*625 FILLER_25_293
*626 FILLER_25_3
*627 FILLER_25_39
*628 FILLER_25_51
*629 FILLER_25_55
*630 FILLER_25_57
*631 FILLER_25_69
*632 FILLER_25_81
*633 FILLER_25_93
*634 FILLER_26_109
*635 FILLER_26_121
*636 FILLER_26_133
*637 FILLER_26_139
*638 FILLER_26_141
*639 FILLER_26_15
*640 FILLER_26_153
*641 FILLER_26_165
*642 FILLER_26_177
*643 FILLER_26_189
*644 FILLER_26_195
*645 FILLER_26_197
*646 FILLER_26_209
*647 FILLER_26_221
*648 FILLER_26_233
*649 FILLER_26_245
*650 FILLER_26_251
*651 FILLER_26_253
*652 FILLER_26_265
*653 FILLER_26_27
*654 FILLER_26_277
*655 FILLER_26_289
*656 FILLER_26_29
*657 FILLER_26_297
*658 FILLER_26_3
*659 FILLER_26_41
*660 FILLER_26_53
*661 FILLER_26_65
*662 FILLER_26_77
*663 FILLER_26_83
*664 FILLER_26_85
*665 FILLER_26_97
*666 FILLER_27_105
*667 FILLER_27_111
*668 FILLER_27_113
*669 FILLER_27_125
*670 FILLER_27_137
*671 FILLER_27_149
*672 FILLER_27_161
*673 FILLER_27_167
*674 FILLER_27_169
*675 FILLER_27_18
*676 FILLER_27_181
*677 FILLER_27_193
*678 FILLER_27_205
*679 FILLER_27_217
*680 FILLER_27_223
*681 FILLER_27_225
*682 FILLER_27_237
*683 FILLER_27_249
*684 FILLER_27_261
*685 FILLER_27_273
*686 FILLER_27_279
*687 FILLER_27_281
*688 FILLER_27_293
*689 FILLER_27_30
*690 FILLER_27_42
*691 FILLER_27_54
*692 FILLER_27_57
*693 FILLER_27_6
*694 FILLER_27_69
*695 FILLER_27_81
*696 FILLER_27_93
*697 FILLER_28_109
*698 FILLER_28_11
*699 FILLER_28_121
*700 FILLER_28_133
*701 FILLER_28_139
*702 FILLER_28_141
*703 FILLER_28_153
*704 FILLER_28_165
*705 FILLER_28_17
*706 FILLER_28_177
*707 FILLER_28_189
*708 FILLER_28_195
*709 FILLER_28_197
*710 FILLER_28_209
*711 FILLER_28_221
*712 FILLER_28_233
*713 FILLER_28_245
*714 FILLER_28_25
*715 FILLER_28_251
*716 FILLER_28_253
*717 FILLER_28_265
*718 FILLER_28_277
*719 FILLER_28_289
*720 FILLER_28_29
*721 FILLER_28_297
*722 FILLER_28_3
*723 FILLER_28_41
*724 FILLER_28_53
*725 FILLER_28_65
*726 FILLER_28_77
*727 FILLER_28_83
*728 FILLER_28_85
*729 FILLER_28_97
*730 FILLER_29_105
*731 FILLER_29_111
*732 FILLER_29_113
*733 FILLER_29_125
*734 FILLER_29_137
*735 FILLER_29_149
*736 FILLER_29_161
*737 FILLER_29_167
*738 FILLER_29_169
*739 FILLER_29_181
*740 FILLER_29_193
*741 FILLER_29_205
*742 FILLER_29_217
*743 FILLER_29_223
*744 FILLER_29_225
*745 FILLER_29_237
*746 FILLER_29_249
*747 FILLER_29_25
*748 FILLER_29_261
*749 FILLER_29_273
*750 FILLER_29_279
*751 FILLER_29_281
*752 FILLER_29_293
*753 FILLER_29_3
*754 FILLER_29_37
*755 FILLER_29_49
*756 FILLER_29_55
*757 FILLER_29_57
*758 FILLER_29_69
*759 FILLER_29_81
*760 FILLER_29_93
*761 FILLER_2_109
*762 FILLER_2_121
*763 FILLER_2_133
*764 FILLER_2_139
*765 FILLER_2_141
*766 FILLER_2_153
*767 FILLER_2_165
*768 FILLER_2_177
*769 FILLER_2_189
*770 FILLER_2_195
*771 FILLER_2_197
*772 FILLER_2_209
*773 FILLER_2_21
*774 FILLER_2_221
*775 FILLER_2_233
*776 FILLER_2_245
*777 FILLER_2_251
*778 FILLER_2_253
*779 FILLER_2_265
*780 FILLER_2_27
*781 FILLER_2_277
*782 FILLER_2_289
*783 FILLER_2_29
*784 FILLER_2_297
*785 FILLER_2_3
*786 FILLER_2_41
*787 FILLER_2_53
*788 FILLER_2_65
*789 FILLER_2_77
*790 FILLER_2_83
*791 FILLER_2_85
*792 FILLER_2_97
*793 FILLER_30_109
*794 FILLER_30_121
*795 FILLER_30_133
*796 FILLER_30_139
*797 FILLER_30_141
*798 FILLER_30_153
*799 FILLER_30_165
*800 FILLER_30_177
*801 FILLER_30_189
*802 FILLER_30_195
*803 FILLER_30_197
*804 FILLER_30_209
*805 FILLER_30_22
*806 FILLER_30_221
*807 FILLER_30_233
*808 FILLER_30_245
*809 FILLER_30_251
*810 FILLER_30_253
*811 FILLER_30_265
*812 FILLER_30_277
*813 FILLER_30_289
*814 FILLER_30_29
*815 FILLER_30_297
*816 FILLER_30_3
*817 FILLER_30_41
*818 FILLER_30_53
*819 FILLER_30_65
*820 FILLER_30_77
*821 FILLER_30_83
*822 FILLER_30_85
*823 FILLER_30_97
*824 FILLER_31_105
*825 FILLER_31_11
*826 FILLER_31_111
*827 FILLER_31_113
*828 FILLER_31_125
*829 FILLER_31_137
*830 FILLER_31_149
*831 FILLER_31_161
*832 FILLER_31_167
*833 FILLER_31_169
*834 FILLER_31_17
*835 FILLER_31_181
*836 FILLER_31_193
*837 FILLER_31_205
*838 FILLER_31_217
*839 FILLER_31_223
*840 FILLER_31_225
*841 FILLER_31_237
*842 FILLER_31_24
*843 FILLER_31_249
*844 FILLER_31_261
*845 FILLER_31_273
*846 FILLER_31_279
*847 FILLER_31_281
*848 FILLER_31_293
*849 FILLER_31_3
*850 FILLER_31_36
*851 FILLER_31_48
*852 FILLER_31_57
*853 FILLER_31_69
*854 FILLER_31_81
*855 FILLER_31_93
*856 FILLER_32_109
*857 FILLER_32_121
*858 FILLER_32_133
*859 FILLER_32_139
*860 FILLER_32_141
*861 FILLER_32_15
*862 FILLER_32_153
*863 FILLER_32_165
*864 FILLER_32_177
*865 FILLER_32_189
*866 FILLER_32_195
*867 FILLER_32_197
*868 FILLER_32_209
*869 FILLER_32_221
*870 FILLER_32_233
*871 FILLER_32_245
*872 FILLER_32_251
*873 FILLER_32_253
*874 FILLER_32_265
*875 FILLER_32_27
*876 FILLER_32_277
*877 FILLER_32_289
*878 FILLER_32_29
*879 FILLER_32_297
*880 FILLER_32_3
*881 FILLER_32_41
*882 FILLER_32_53
*883 FILLER_32_65
*884 FILLER_32_77
*885 FILLER_32_83
*886 FILLER_32_85
*887 FILLER_32_97
*888 FILLER_33_105
*889 FILLER_33_111
*890 FILLER_33_113
*891 FILLER_33_125
*892 FILLER_33_137
*893 FILLER_33_149
*894 FILLER_33_161
*895 FILLER_33_167
*896 FILLER_33_169
*897 FILLER_33_181
*898 FILLER_33_193
*899 FILLER_33_205
*900 FILLER_33_217
*901 FILLER_33_22
*902 FILLER_33_223
*903 FILLER_33_225
*904 FILLER_33_237
*905 FILLER_33_249
*906 FILLER_33_261
*907 FILLER_33_273
*908 FILLER_33_279
*909 FILLER_33_281
*910 FILLER_33_293
*911 FILLER_33_3
*912 FILLER_33_34
*913 FILLER_33_46
*914 FILLER_33_54
*915 FILLER_33_57
*916 FILLER_33_69
*917 FILLER_33_81
*918 FILLER_33_93
*919 FILLER_34_109
*920 FILLER_34_11
*921 FILLER_34_121
*922 FILLER_34_133
*923 FILLER_34_139
*924 FILLER_34_141
*925 FILLER_34_153
*926 FILLER_34_165
*927 FILLER_34_17
*928 FILLER_34_177
*929 FILLER_34_189
*930 FILLER_34_195
*931 FILLER_34_197
*932 FILLER_34_209
*933 FILLER_34_221
*934 FILLER_34_233
*935 FILLER_34_245
*936 FILLER_34_25
*937 FILLER_34_251
*938 FILLER_34_253
*939 FILLER_34_265
*940 FILLER_34_277
*941 FILLER_34_289
*942 FILLER_34_29
*943 FILLER_34_297
*944 FILLER_34_3
*945 FILLER_34_41
*946 FILLER_34_53
*947 FILLER_34_65
*948 FILLER_34_77
*949 FILLER_34_83
*950 FILLER_34_85
*951 FILLER_34_97
*952 FILLER_35_105
*953 FILLER_35_111
*954 FILLER_35_113
*955 FILLER_35_125
*956 FILLER_35_137
*957 FILLER_35_149
*958 FILLER_35_15
*959 FILLER_35_161
*960 FILLER_35_167
*961 FILLER_35_169
*962 FILLER_35_181
*963 FILLER_35_193
*964 FILLER_35_205
*965 FILLER_35_217
*966 FILLER_35_223
*967 FILLER_35_225
*968 FILLER_35_237
*969 FILLER_35_249
*970 FILLER_35_261
*971 FILLER_35_27
*972 FILLER_35_273
*973 FILLER_35_279
*974 FILLER_35_281
*975 FILLER_35_293
*976 FILLER_35_3
*977 FILLER_35_39
*978 FILLER_35_51
*979 FILLER_35_55
*980 FILLER_35_57
*981 FILLER_35_69
*982 FILLER_35_81
*983 FILLER_35_93
*984 FILLER_36_109
*985 FILLER_36_121
*986 FILLER_36_133
*987 FILLER_36_139
*988 FILLER_36_141
*989 FILLER_36_153
*990 FILLER_36_165
*991 FILLER_36_177
*992 FILLER_36_189
*993 FILLER_36_195
*994 FILLER_36_197
*995 FILLER_36_209
*996 FILLER_36_221
*997 FILLER_36_23
*998 FILLER_36_233
*999 FILLER_36_245
*1000 FILLER_36_251
*1001 FILLER_36_253
*1002 FILLER_36_265
*1003 FILLER_36_27
*1004 FILLER_36_277
*1005 FILLER_36_289
*1006 FILLER_36_29
*1007 FILLER_36_297
*1008 FILLER_36_3
*1009 FILLER_36_41
*1010 FILLER_36_53
*1011 FILLER_36_65
*1012 FILLER_36_77
*1013 FILLER_36_83
*1014 FILLER_36_85
*1015 FILLER_36_97
*1016 FILLER_37_10
*1017 FILLER_37_105
*1018 FILLER_37_111
*1019 FILLER_37_113
*1020 FILLER_37_125
*1021 FILLER_37_137
*1022 FILLER_37_149
*1023 FILLER_37_161
*1024 FILLER_37_167
*1025 FILLER_37_169
*1026 FILLER_37_181
*1027 FILLER_37_193
*1028 FILLER_37_205
*1029 FILLER_37_217
*1030 FILLER_37_22
*1031 FILLER_37_223
*1032 FILLER_37_225
*1033 FILLER_37_237
*1034 FILLER_37_249
*1035 FILLER_37_261
*1036 FILLER_37_273
*1037 FILLER_37_279
*1038 FILLER_37_281
*1039 FILLER_37_293
*1040 FILLER_37_3
*1041 FILLER_37_34
*1042 FILLER_37_46
*1043 FILLER_37_54
*1044 FILLER_37_57
*1045 FILLER_37_69
*1046 FILLER_37_81
*1047 FILLER_37_93
*1048 FILLER_38_109
*1049 FILLER_38_11
*1050 FILLER_38_121
*1051 FILLER_38_133
*1052 FILLER_38_139
*1053 FILLER_38_141
*1054 FILLER_38_153
*1055 FILLER_38_165
*1056 FILLER_38_17
*1057 FILLER_38_177
*1058 FILLER_38_189
*1059 FILLER_38_195
*1060 FILLER_38_197
*1061 FILLER_38_209
*1062 FILLER_38_221
*1063 FILLER_38_233
*1064 FILLER_38_245
*1065 FILLER_38_25
*1066 FILLER_38_251
*1067 FILLER_38_253
*1068 FILLER_38_265
*1069 FILLER_38_277
*1070 FILLER_38_289
*1071 FILLER_38_29
*1072 FILLER_38_297
*1073 FILLER_38_3
*1074 FILLER_38_41
*1075 FILLER_38_53
*1076 FILLER_38_65
*1077 FILLER_38_77
*1078 FILLER_38_83
*1079 FILLER_38_85
*1080 FILLER_38_97
*1081 FILLER_39_105
*1082 FILLER_39_111
*1083 FILLER_39_113
*1084 FILLER_39_125
*1085 FILLER_39_137
*1086 FILLER_39_149
*1087 FILLER_39_15
*1088 FILLER_39_161
*1089 FILLER_39_167
*1090 FILLER_39_169
*1091 FILLER_39_181
*1092 FILLER_39_193
*1093 FILLER_39_205
*1094 FILLER_39_217
*1095 FILLER_39_223
*1096 FILLER_39_225
*1097 FILLER_39_237
*1098 FILLER_39_249
*1099 FILLER_39_261
*1100 FILLER_39_27
*1101 FILLER_39_273
*1102 FILLER_39_279
*1103 FILLER_39_281
*1104 FILLER_39_293
*1105 FILLER_39_3
*1106 FILLER_39_39
*1107 FILLER_39_51
*1108 FILLER_39_55
*1109 FILLER_39_57
*1110 FILLER_39_69
*1111 FILLER_39_81
*1112 FILLER_39_93
*1113 FILLER_3_105
*1114 FILLER_3_111
*1115 FILLER_3_113
*1116 FILLER_3_125
*1117 FILLER_3_137
*1118 FILLER_3_149
*1119 FILLER_3_15
*1120 FILLER_3_161
*1121 FILLER_3_167
*1122 FILLER_3_169
*1123 FILLER_3_181
*1124 FILLER_3_193
*1125 FILLER_3_205
*1126 FILLER_3_217
*1127 FILLER_3_223
*1128 FILLER_3_225
*1129 FILLER_3_237
*1130 FILLER_3_249
*1131 FILLER_3_261
*1132 FILLER_3_27
*1133 FILLER_3_273
*1134 FILLER_3_279
*1135 FILLER_3_281
*1136 FILLER_3_293
*1137 FILLER_3_3
*1138 FILLER_3_39
*1139 FILLER_3_51
*1140 FILLER_3_55
*1141 FILLER_3_57
*1142 FILLER_3_69
*1143 FILLER_3_81
*1144 FILLER_3_93
*1145 FILLER_40_109
*1146 FILLER_40_121
*1147 FILLER_40_133
*1148 FILLER_40_139
*1149 FILLER_40_141
*1150 FILLER_40_153
*1151 FILLER_40_165
*1152 FILLER_40_177
*1153 FILLER_40_189
*1154 FILLER_40_195
*1155 FILLER_40_197
*1156 FILLER_40_209
*1157 FILLER_40_221
*1158 FILLER_40_23
*1159 FILLER_40_233
*1160 FILLER_40_245
*1161 FILLER_40_251
*1162 FILLER_40_253
*1163 FILLER_40_265
*1164 FILLER_40_27
*1165 FILLER_40_277
*1166 FILLER_40_289
*1167 FILLER_40_29
*1168 FILLER_40_297
*1169 FILLER_40_3
*1170 FILLER_40_41
*1171 FILLER_40_53
*1172 FILLER_40_65
*1173 FILLER_40_77
*1174 FILLER_40_83
*1175 FILLER_40_85
*1176 FILLER_40_97
*1177 FILLER_41_105
*1178 FILLER_41_111
*1179 FILLER_41_113
*1180 FILLER_41_125
*1181 FILLER_41_137
*1182 FILLER_41_149
*1183 FILLER_41_15
*1184 FILLER_41_161
*1185 FILLER_41_167
*1186 FILLER_41_169
*1187 FILLER_41_181
*1188 FILLER_41_193
*1189 FILLER_41_205
*1190 FILLER_41_217
*1191 FILLER_41_223
*1192 FILLER_41_225
*1193 FILLER_41_237
*1194 FILLER_41_249
*1195 FILLER_41_261
*1196 FILLER_41_27
*1197 FILLER_41_273
*1198 FILLER_41_279
*1199 FILLER_41_281
*1200 FILLER_41_293
*1201 FILLER_41_3
*1202 FILLER_41_39
*1203 FILLER_41_51
*1204 FILLER_41_55
*1205 FILLER_41_57
*1206 FILLER_41_69
*1207 FILLER_41_81
*1208 FILLER_41_93
*1209 FILLER_42_109
*1210 FILLER_42_11
*1211 FILLER_42_121
*1212 FILLER_42_133
*1213 FILLER_42_139
*1214 FILLER_42_141
*1215 FILLER_42_153
*1216 FILLER_42_165
*1217 FILLER_42_17
*1218 FILLER_42_177
*1219 FILLER_42_189
*1220 FILLER_42_195
*1221 FILLER_42_197
*1222 FILLER_42_209
*1223 FILLER_42_221
*1224 FILLER_42_233
*1225 FILLER_42_245
*1226 FILLER_42_25
*1227 FILLER_42_251
*1228 FILLER_42_253
*1229 FILLER_42_265
*1230 FILLER_42_277
*1231 FILLER_42_289
*1232 FILLER_42_29
*1233 FILLER_42_297
*1234 FILLER_42_3
*1235 FILLER_42_41
*1236 FILLER_42_53
*1237 FILLER_42_65
*1238 FILLER_42_77
*1239 FILLER_42_83
*1240 FILLER_42_85
*1241 FILLER_42_97
*1242 FILLER_43_105
*1243 FILLER_43_111
*1244 FILLER_43_113
*1245 FILLER_43_125
*1246 FILLER_43_137
*1247 FILLER_43_149
*1248 FILLER_43_161
*1249 FILLER_43_167
*1250 FILLER_43_169
*1251 FILLER_43_181
*1252 FILLER_43_193
*1253 FILLER_43_205
*1254 FILLER_43_217
*1255 FILLER_43_22
*1256 FILLER_43_223
*1257 FILLER_43_225
*1258 FILLER_43_237
*1259 FILLER_43_249
*1260 FILLER_43_261
*1261 FILLER_43_273
*1262 FILLER_43_279
*1263 FILLER_43_281
*1264 FILLER_43_293
*1265 FILLER_43_3
*1266 FILLER_43_34
*1267 FILLER_43_46
*1268 FILLER_43_54
*1269 FILLER_43_57
*1270 FILLER_43_69
*1271 FILLER_43_81
*1272 FILLER_43_93
*1273 FILLER_44_109
*1274 FILLER_44_11
*1275 FILLER_44_121
*1276 FILLER_44_133
*1277 FILLER_44_139
*1278 FILLER_44_141
*1279 FILLER_44_153
*1280 FILLER_44_165
*1281 FILLER_44_17
*1282 FILLER_44_177
*1283 FILLER_44_189
*1284 FILLER_44_195
*1285 FILLER_44_197
*1286 FILLER_44_209
*1287 FILLER_44_221
*1288 FILLER_44_233
*1289 FILLER_44_245
*1290 FILLER_44_25
*1291 FILLER_44_251
*1292 FILLER_44_253
*1293 FILLER_44_265
*1294 FILLER_44_277
*1295 FILLER_44_289
*1296 FILLER_44_29
*1297 FILLER_44_297
*1298 FILLER_44_3
*1299 FILLER_44_41
*1300 FILLER_44_53
*1301 FILLER_44_65
*1302 FILLER_44_77
*1303 FILLER_44_83
*1304 FILLER_44_85
*1305 FILLER_44_97
*1306 FILLER_45_105
*1307 FILLER_45_111
*1308 FILLER_45_113
*1309 FILLER_45_125
*1310 FILLER_45_137
*1311 FILLER_45_149
*1312 FILLER_45_161
*1313 FILLER_45_167
*1314 FILLER_45_169
*1315 FILLER_45_181
*1316 FILLER_45_193
*1317 FILLER_45_205
*1318 FILLER_45_217
*1319 FILLER_45_22
*1320 FILLER_45_223
*1321 FILLER_45_225
*1322 FILLER_45_237
*1323 FILLER_45_249
*1324 FILLER_45_261
*1325 FILLER_45_273
*1326 FILLER_45_279
*1327 FILLER_45_281
*1328 FILLER_45_293
*1329 FILLER_45_3
*1330 FILLER_45_34
*1331 FILLER_45_46
*1332 FILLER_45_54
*1333 FILLER_45_57
*1334 FILLER_45_69
*1335 FILLER_45_81
*1336 FILLER_45_93
*1337 FILLER_46_109
*1338 FILLER_46_11
*1339 FILLER_46_121
*1340 FILLER_46_133
*1341 FILLER_46_139
*1342 FILLER_46_141
*1343 FILLER_46_153
*1344 FILLER_46_165
*1345 FILLER_46_17
*1346 FILLER_46_177
*1347 FILLER_46_189
*1348 FILLER_46_195
*1349 FILLER_46_197
*1350 FILLER_46_209
*1351 FILLER_46_221
*1352 FILLER_46_233
*1353 FILLER_46_245
*1354 FILLER_46_25
*1355 FILLER_46_251
*1356 FILLER_46_253
*1357 FILLER_46_265
*1358 FILLER_46_277
*1359 FILLER_46_289
*1360 FILLER_46_29
*1361 FILLER_46_297
*1362 FILLER_46_3
*1363 FILLER_46_41
*1364 FILLER_46_53
*1365 FILLER_46_65
*1366 FILLER_46_77
*1367 FILLER_46_83
*1368 FILLER_46_85
*1369 FILLER_46_97
*1370 FILLER_47_105
*1371 FILLER_47_11
*1372 FILLER_47_111
*1373 FILLER_47_113
*1374 FILLER_47_125
*1375 FILLER_47_137
*1376 FILLER_47_149
*1377 FILLER_47_16
*1378 FILLER_47_161
*1379 FILLER_47_167
*1380 FILLER_47_169
*1381 FILLER_47_181
*1382 FILLER_47_193
*1383 FILLER_47_205
*1384 FILLER_47_217
*1385 FILLER_47_223
*1386 FILLER_47_225
*1387 FILLER_47_237
*1388 FILLER_47_249
*1389 FILLER_47_261
*1390 FILLER_47_273
*1391 FILLER_47_279
*1392 FILLER_47_28
*1393 FILLER_47_281
*1394 FILLER_47_293
*1395 FILLER_47_3
*1396 FILLER_47_40
*1397 FILLER_47_52
*1398 FILLER_47_57
*1399 FILLER_47_69
*1400 FILLER_47_81
*1401 FILLER_47_93
*1402 FILLER_48_109
*1403 FILLER_48_121
*1404 FILLER_48_133
*1405 FILLER_48_139
*1406 FILLER_48_141
*1407 FILLER_48_15
*1408 FILLER_48_153
*1409 FILLER_48_165
*1410 FILLER_48_177
*1411 FILLER_48_189
*1412 FILLER_48_195
*1413 FILLER_48_197
*1414 FILLER_48_209
*1415 FILLER_48_221
*1416 FILLER_48_233
*1417 FILLER_48_245
*1418 FILLER_48_251
*1419 FILLER_48_253
*1420 FILLER_48_265
*1421 FILLER_48_27
*1422 FILLER_48_277
*1423 FILLER_48_289
*1424 FILLER_48_29
*1425 FILLER_48_297
*1426 FILLER_48_3
*1427 FILLER_48_41
*1428 FILLER_48_53
*1429 FILLER_48_65
*1430 FILLER_48_77
*1431 FILLER_48_83
*1432 FILLER_48_85
*1433 FILLER_48_97
*1434 FILLER_49_105
*1435 FILLER_49_111
*1436 FILLER_49_113
*1437 FILLER_49_125
*1438 FILLER_49_137
*1439 FILLER_49_149
*1440 FILLER_49_15
*1441 FILLER_49_161
*1442 FILLER_49_167
*1443 FILLER_49_169
*1444 FILLER_49_181
*1445 FILLER_49_193
*1446 FILLER_49_205
*1447 FILLER_49_217
*1448 FILLER_49_223
*1449 FILLER_49_225
*1450 FILLER_49_237
*1451 FILLER_49_249
*1452 FILLER_49_261
*1453 FILLER_49_27
*1454 FILLER_49_273
*1455 FILLER_49_279
*1456 FILLER_49_281
*1457 FILLER_49_293
*1458 FILLER_49_3
*1459 FILLER_49_39
*1460 FILLER_49_51
*1461 FILLER_49_55
*1462 FILLER_49_57
*1463 FILLER_49_69
*1464 FILLER_49_81
*1465 FILLER_49_93
*1466 FILLER_4_109
*1467 FILLER_4_121
*1468 FILLER_4_133
*1469 FILLER_4_139
*1470 FILLER_4_141
*1471 FILLER_4_15
*1472 FILLER_4_153
*1473 FILLER_4_165
*1474 FILLER_4_177
*1475 FILLER_4_189
*1476 FILLER_4_195
*1477 FILLER_4_197
*1478 FILLER_4_209
*1479 FILLER_4_221
*1480 FILLER_4_233
*1481 FILLER_4_245
*1482 FILLER_4_251
*1483 FILLER_4_253
*1484 FILLER_4_265
*1485 FILLER_4_27
*1486 FILLER_4_277
*1487 FILLER_4_289
*1488 FILLER_4_29
*1489 FILLER_4_297
*1490 FILLER_4_3
*1491 FILLER_4_41
*1492 FILLER_4_53
*1493 FILLER_4_65
*1494 FILLER_4_77
*1495 FILLER_4_83
*1496 FILLER_4_85
*1497 FILLER_4_97
*1498 FILLER_50_109
*1499 FILLER_50_121
*1500 FILLER_50_133
*1501 FILLER_50_139
*1502 FILLER_50_141
*1503 FILLER_50_15
*1504 FILLER_50_153
*1505 FILLER_50_165
*1506 FILLER_50_177
*1507 FILLER_50_189
*1508 FILLER_50_195
*1509 FILLER_50_197
*1510 FILLER_50_209
*1511 FILLER_50_221
*1512 FILLER_50_233
*1513 FILLER_50_245
*1514 FILLER_50_251
*1515 FILLER_50_253
*1516 FILLER_50_265
*1517 FILLER_50_27
*1518 FILLER_50_277
*1519 FILLER_50_289
*1520 FILLER_50_29
*1521 FILLER_50_297
*1522 FILLER_50_3
*1523 FILLER_50_41
*1524 FILLER_50_53
*1525 FILLER_50_65
*1526 FILLER_50_77
*1527 FILLER_50_83
*1528 FILLER_50_85
*1529 FILLER_50_97
*1530 FILLER_51_105
*1531 FILLER_51_111
*1532 FILLER_51_113
*1533 FILLER_51_125
*1534 FILLER_51_137
*1535 FILLER_51_149
*1536 FILLER_51_15
*1537 FILLER_51_161
*1538 FILLER_51_167
*1539 FILLER_51_169
*1540 FILLER_51_181
*1541 FILLER_51_193
*1542 FILLER_51_205
*1543 FILLER_51_217
*1544 FILLER_51_223
*1545 FILLER_51_225
*1546 FILLER_51_237
*1547 FILLER_51_249
*1548 FILLER_51_261
*1549 FILLER_51_27
*1550 FILLER_51_273
*1551 FILLER_51_279
*1552 FILLER_51_281
*1553 FILLER_51_293
*1554 FILLER_51_3
*1555 FILLER_51_39
*1556 FILLER_51_51
*1557 FILLER_51_55
*1558 FILLER_51_57
*1559 FILLER_51_69
*1560 FILLER_51_81
*1561 FILLER_51_93
*1562 FILLER_52_109
*1563 FILLER_52_121
*1564 FILLER_52_133
*1565 FILLER_52_139
*1566 FILLER_52_141
*1567 FILLER_52_15
*1568 FILLER_52_153
*1569 FILLER_52_165
*1570 FILLER_52_177
*1571 FILLER_52_189
*1572 FILLER_52_195
*1573 FILLER_52_197
*1574 FILLER_52_209
*1575 FILLER_52_221
*1576 FILLER_52_233
*1577 FILLER_52_245
*1578 FILLER_52_251
*1579 FILLER_52_253
*1580 FILLER_52_265
*1581 FILLER_52_27
*1582 FILLER_52_277
*1583 FILLER_52_289
*1584 FILLER_52_29
*1585 FILLER_52_297
*1586 FILLER_52_3