*SPEF "ieee 1481-1999"
*DESIGN "user_module_346916357828248146"
*DATE "11:11:11 Fri 11 11, 1111"
*VENDOR "OpenRCX"
*PROGRAM "Parallel Extraction"
*VERSION "1.0"
*DESIGN_FLOW "NAME_SCOPE LOCAL" "PIN_CAP NONE"
*DIVIDER /
*DELIMITER :
*BUS_DELIMITER []
*T_UNIT 1 NS
*C_UNIT 1 PF
*R_UNIT 1 OHM
*L_UNIT 1 HENRY

*NAME_MAP
*1 io_in[0]
*2 io_in[1]
*3 io_in[2]
*4 io_in[3]
*5 io_in[4]
*6 io_in[5]
*7 io_in[6]
*8 io_in[7]
*9 io_out[0]
*10 io_out[1]
*11 io_out[2]
*12 io_out[3]
*13 io_out[4]
*14 io_out[5]
*15 io_out[6]
*16 io_out[7]
*19 _00_
*20 _01_
*21 clknet_0_flop1\.clk
*22 clknet_0_gate3\.a
*23 clknet_0_gate4\.b
*24 clknet_1_0__leaf_flop1\.clk
*25 clknet_1_0__leaf_gate3\.a
*26 clknet_1_0__leaf_gate4\.b
*27 clknet_1_1__leaf_flop1\.clk
*28 clknet_1_1__leaf_gate3\.a
*29 clknet_1_1__leaf_gate4\.b
*30 flop1\.clk
*31 flop1\.d
*32 flop1\.notq
*33 flop1\.q
*34 gate3\.a
*35 gate4\.b
*36 gate4\.out
*37 mux2\.out
*38 net1
*39 net2
*40 net3
*41 net4
*42 net5
*43 net6
*44 net7
*45 FILLER_0_109
*46 FILLER_0_113
*47 FILLER_0_125
*48 FILLER_0_137
*49 FILLER_0_141
*50 FILLER_0_15
*51 FILLER_0_153
*52 FILLER_0_165
*53 FILLER_0_169
*54 FILLER_0_181
*55 FILLER_0_193
*56 FILLER_0_197
*57 FILLER_0_209
*58 FILLER_0_221
*59 FILLER_0_225
*60 FILLER_0_237
*61 FILLER_0_249
*62 FILLER_0_253
*63 FILLER_0_265
*64 FILLER_0_27
*65 FILLER_0_277
*66 FILLER_0_281
*67 FILLER_0_29
*68 FILLER_0_293
*69 FILLER_0_3
*70 FILLER_0_41
*71 FILLER_0_53
*72 FILLER_0_57
*73 FILLER_0_69
*74 FILLER_0_81
*75 FILLER_0_85
*76 FILLER_0_97
*77 FILLER_10_109
*78 FILLER_10_121
*79 FILLER_10_133
*80 FILLER_10_139
*81 FILLER_10_141
*82 FILLER_10_15
*83 FILLER_10_153
*84 FILLER_10_165
*85 FILLER_10_177
*86 FILLER_10_189
*87 FILLER_10_195
*88 FILLER_10_197
*89 FILLER_10_209
*90 FILLER_10_221
*91 FILLER_10_233
*92 FILLER_10_245
*93 FILLER_10_251
*94 FILLER_10_253
*95 FILLER_10_265
*96 FILLER_10_27
*97 FILLER_10_277
*98 FILLER_10_289
*99 FILLER_10_29
*100 FILLER_10_297
*101 FILLER_10_3
*102 FILLER_10_41
*103 FILLER_10_53
*104 FILLER_10_65
*105 FILLER_10_77
*106 FILLER_10_83
*107 FILLER_10_85
*108 FILLER_10_97
*109 FILLER_11_105
*110 FILLER_11_111
*111 FILLER_11_113
*112 FILLER_11_125
*113 FILLER_11_137
*114 FILLER_11_149
*115 FILLER_11_15
*116 FILLER_11_161
*117 FILLER_11_167
*118 FILLER_11_169
*119 FILLER_11_181
*120 FILLER_11_193
*121 FILLER_11_205
*122 FILLER_11_217
*123 FILLER_11_223
*124 FILLER_11_225
*125 FILLER_11_237
*126 FILLER_11_249
*127 FILLER_11_261
*128 FILLER_11_27
*129 FILLER_11_273
*130 FILLER_11_279
*131 FILLER_11_281
*132 FILLER_11_293
*133 FILLER_11_3
*134 FILLER_11_39
*135 FILLER_11_51
*136 FILLER_11_55
*137 FILLER_11_57
*138 FILLER_11_69
*139 FILLER_11_81
*140 FILLER_11_93
*141 FILLER_12_109
*142 FILLER_12_11
*143 FILLER_12_121
*144 FILLER_12_133
*145 FILLER_12_139
*146 FILLER_12_141
*147 FILLER_12_153
*148 FILLER_12_165
*149 FILLER_12_177
*150 FILLER_12_189
*151 FILLER_12_195
*152 FILLER_12_197
*153 FILLER_12_209
*154 FILLER_12_221
*155 FILLER_12_23
*156 FILLER_12_233
*157 FILLER_12_245
*158 FILLER_12_251
*159 FILLER_12_253
*160 FILLER_12_265
*161 FILLER_12_27
*162 FILLER_12_277
*163 FILLER_12_289
*164 FILLER_12_29
*165 FILLER_12_297
*166 FILLER_12_3
*167 FILLER_12_41
*168 FILLER_12_53
*169 FILLER_12_65
*170 FILLER_12_77
*171 FILLER_12_83
*172 FILLER_12_85
*173 FILLER_12_97
*174 FILLER_13_105
*175 FILLER_13_111
*176 FILLER_13_113
*177 FILLER_13_125
*178 FILLER_13_137
*179 FILLER_13_149
*180 FILLER_13_15
*181 FILLER_13_161
*182 FILLER_13_167
*183 FILLER_13_169
*184 FILLER_13_181
*185 FILLER_13_193
*186 FILLER_13_205
*187 FILLER_13_217
*188 FILLER_13_223
*189 FILLER_13_225
*190 FILLER_13_237
*191 FILLER_13_249
*192 FILLER_13_261
*193 FILLER_13_27
*194 FILLER_13_273
*195 FILLER_13_279
*196 FILLER_13_281
*197 FILLER_13_293
*198 FILLER_13_3
*199 FILLER_13_39
*200 FILLER_13_51
*201 FILLER_13_55
*202 FILLER_13_57
*203 FILLER_13_69
*204 FILLER_13_81
*205 FILLER_13_93
*206 FILLER_14_109
*207 FILLER_14_121
*208 FILLER_14_133
*209 FILLER_14_139
*210 FILLER_14_141
*211 FILLER_14_15
*212 FILLER_14_153
*213 FILLER_14_165
*214 FILLER_14_177
*215 FILLER_14_189
*216 FILLER_14_195
*217 FILLER_14_197
*218 FILLER_14_209
*219 FILLER_14_221
*220 FILLER_14_233
*221 FILLER_14_245
*222 FILLER_14_251
*223 FILLER_14_253
*224 FILLER_14_265
*225 FILLER_14_27
*226 FILLER_14_277
*227 FILLER_14_289
*228 FILLER_14_29
*229 FILLER_14_297
*230 FILLER_14_3
*231 FILLER_14_41
*232 FILLER_14_53
*233 FILLER_14_65
*234 FILLER_14_77
*235 FILLER_14_83
*236 FILLER_14_85
*237 FILLER_14_97
*238 FILLER_15_105
*239 FILLER_15_111
*240 FILLER_15_113
*241 FILLER_15_125
*242 FILLER_15_137
*243 FILLER_15_149
*244 FILLER_15_15
*245 FILLER_15_161
*246 FILLER_15_167
*247 FILLER_15_169
*248 FILLER_15_181
*249 FILLER_15_193
*250 FILLER_15_205
*251 FILLER_15_217
*252 FILLER_15_223
*253 FILLER_15_225
*254 FILLER_15_237
*255 FILLER_15_249
*256 FILLER_15_261
*257 FILLER_15_27
*258 FILLER_15_273
*259 FILLER_15_279
*260 FILLER_15_281
*261 FILLER_15_293
*262 FILLER_15_3
*263 FILLER_15_39
*264 FILLER_15_51
*265 FILLER_15_55
*266 FILLER_15_57
*267 FILLER_15_69
*268 FILLER_15_81
*269 FILLER_15_93
*270 FILLER_16_109
*271 FILLER_16_121
*272 FILLER_16_133
*273 FILLER_16_139
*274 FILLER_16_141
*275 FILLER_16_153
*276 FILLER_16_165
*277 FILLER_16_177
*278 FILLER_16_18
*279 FILLER_16_189
*280 FILLER_16_195
*281 FILLER_16_197
*282 FILLER_16_209
*283 FILLER_16_221
*284 FILLER_16_233
*285 FILLER_16_245
*286 FILLER_16_251
*287 FILLER_16_253
*288 FILLER_16_26
*289 FILLER_16_265
*290 FILLER_16_277
*291 FILLER_16_289
*292 FILLER_16_29
*293 FILLER_16_297
*294 FILLER_16_41
*295 FILLER_16_53
*296 FILLER_16_6
*297 FILLER_16_65
*298 FILLER_16_77
*299 FILLER_16_83
*300 FILLER_16_85
*301 FILLER_16_97
*302 FILLER_17_105
*303 FILLER_17_111
*304 FILLER_17_113
*305 FILLER_17_125
*306 FILLER_17_137
*307 FILLER_17_149
*308 FILLER_17_15
*309 FILLER_17_161
*310 FILLER_17_167
*311 FILLER_17_169
*312 FILLER_17_181
*313 FILLER_17_193
*314 FILLER_17_205
*315 FILLER_17_217
*316 FILLER_17_223
*317 FILLER_17_225
*318 FILLER_17_237
*319 FILLER_17_249
*320 FILLER_17_261
*321 FILLER_17_27
*322 FILLER_17_273
*323 FILLER_17_279
*324 FILLER_17_281
*325 FILLER_17_293
*326 FILLER_17_3
*327 FILLER_17_39
*328 FILLER_17_51
*329 FILLER_17_55
*330 FILLER_17_57
*331 FILLER_17_69
*332 FILLER_17_81
*333 FILLER_17_93
*334 FILLER_18_109
*335 FILLER_18_121
*336 FILLER_18_133
*337 FILLER_18_139
*338 FILLER_18_141
*339 FILLER_18_153
*340 FILLER_18_165
*341 FILLER_18_177
*342 FILLER_18_189
*343 FILLER_18_195
*344 FILLER_18_197
*345 FILLER_18_20
*346 FILLER_18_209
*347 FILLER_18_221
*348 FILLER_18_233
*349 FILLER_18_245
*350 FILLER_18_251
*351 FILLER_18_253
*352 FILLER_18_265
*353 FILLER_18_277
*354 FILLER_18_289
*355 FILLER_18_29
*356 FILLER_18_297
*357 FILLER_18_3
*358 FILLER_18_41
*359 FILLER_18_53
*360 FILLER_18_65
*361 FILLER_18_77
*362 FILLER_18_8
*363 FILLER_18_83
*364 FILLER_18_85
*365 FILLER_18_97
*366 FILLER_19_105
*367 FILLER_19_111
*368 FILLER_19_113
*369 FILLER_19_125
*370 FILLER_19_137
*371 FILLER_19_149
*372 FILLER_19_15
*373 FILLER_19_161
*374 FILLER_19_167
*375 FILLER_19_169
*376 FILLER_19_181
*377 FILLER_19_193
*378 FILLER_19_205
*379 FILLER_19_217
*380 FILLER_19_223
*381 FILLER_19_225
*382 FILLER_19_237
*383 FILLER_19_249
*384 FILLER_19_261
*385 FILLER_19_27
*386 FILLER_19_273
*387 FILLER_19_279
*388 FILLER_19_281
*389 FILLER_19_293
*390 FILLER_19_3
*391 FILLER_19_39
*392 FILLER_19_51
*393 FILLER_19_55
*394 FILLER_19_57
*395 FILLER_19_69
*396 FILLER_19_81
*397 FILLER_19_93
*398 FILLER_1_105
*399 FILLER_1_111
*400 FILLER_1_113
*401 FILLER_1_125
*402 FILLER_1_137
*403 FILLER_1_149
*404 FILLER_1_15
*405 FILLER_1_161
*406 FILLER_1_167
*407 FILLER_1_169
*408 FILLER_1_181
*409 FILLER_1_193
*410 FILLER_1_205
*411 FILLER_1_217
*412 FILLER_1_223
*413 FILLER_1_225
*414 FILLER_1_237
*415 FILLER_1_249
*416 FILLER_1_261
*417 FILLER_1_27
*418 FILLER_1_273
*419 FILLER_1_279
*420 FILLER_1_281
*421 FILLER_1_293
*422 FILLER_1_3
*423 FILLER_1_39
*424 FILLER_1_51
*425 FILLER_1_55
*426 FILLER_1_57
*427 FILLER_1_69
*428 FILLER_1_81
*429 FILLER_1_93
*430 FILLER_20_109
*431 FILLER_20_121
*432 FILLER_20_133
*433 FILLER_20_139
*434 FILLER_20_141
*435 FILLER_20_153
*436 FILLER_20_165
*437 FILLER_20_177
*438 FILLER_20_18
*439 FILLER_20_189
*440 FILLER_20_195
*441 FILLER_20_197
*442 FILLER_20_209
*443 FILLER_20_221
*444 FILLER_20_233
*445 FILLER_20_245
*446 FILLER_20_251
*447 FILLER_20_253
*448 FILLER_20_26
*449 FILLER_20_265
*450 FILLER_20_277
*451 FILLER_20_289
*452 FILLER_20_29
*453 FILLER_20_297
*454 FILLER_20_41
*455 FILLER_20_53
*456 FILLER_20_6
*457 FILLER_20_65
*458 FILLER_20_77
*459 FILLER_20_83
*460 FILLER_20_85
*461 FILLER_20_97
*462 FILLER_21_105
*463 FILLER_21_111
*464 FILLER_21_113
*465 FILLER_21_125
*466 FILLER_21_137
*467 FILLER_21_149
*468 FILLER_21_15
*469 FILLER_21_161
*470 FILLER_21_167
*471 FILLER_21_169
*472 FILLER_21_181
*473 FILLER_21_193
*474 FILLER_21_205
*475 FILLER_21_217
*476 FILLER_21_223
*477 FILLER_21_225
*478 FILLER_21_237
*479 FILLER_21_249
*480 FILLER_21_261
*481 FILLER_21_27
*482 FILLER_21_273
*483 FILLER_21_279
*484 FILLER_21_281
*485 FILLER_21_293
*486 FILLER_21_3
*487 FILLER_21_39
*488 FILLER_21_51
*489 FILLER_21_55
*490 FILLER_21_57
*491 FILLER_21_69
*492 FILLER_21_81
*493 FILLER_21_93
*494 FILLER_22_109
*495 FILLER_22_12
*496 FILLER_22_121
*497 FILLER_22_133
*498 FILLER_22_139
*499 FILLER_22_141
*500 FILLER_22_153
*501 FILLER_22_165
*502 FILLER_22_177
*503 FILLER_22_189
*504 FILLER_22_195
*505 FILLER_22_197
*506 FILLER_22_209
*507 FILLER_22_221
*508 FILLER_22_233
*509 FILLER_22_24
*510 FILLER_22_245
*511 FILLER_22_251
*512 FILLER_22_253
*513 FILLER_22_265
*514 FILLER_22_277
*515 FILLER_22_289
*516 FILLER_22_29
*517 FILLER_22_297
*518 FILLER_22_41
*519 FILLER_22_53
*520 FILLER_22_65
*521 FILLER_22_77
*522 FILLER_22_83
*523 FILLER_22_85
*524 FILLER_22_97
*525 FILLER_23_104
*526 FILLER_23_113
*527 FILLER_23_125
*528 FILLER_23_137
*529 FILLER_23_149
*530 FILLER_23_15
*531 FILLER_23_161
*532 FILLER_23_167
*533 FILLER_23_169
*534 FILLER_23_181
*535 FILLER_23_193
*536 FILLER_23_205
*537 FILLER_23_217
*538 FILLER_23_223
*539 FILLER_23_225
*540 FILLER_23_237
*541 FILLER_23_249
*542 FILLER_23_261
*543 FILLER_23_27
*544 FILLER_23_273
*545 FILLER_23_279
*546 FILLER_23_281
*547 FILLER_23_293
*548 FILLER_23_3
*549 FILLER_23_39
*550 FILLER_23_51
*551 FILLER_23_55
*552 FILLER_23_57
*553 FILLER_23_69
*554 FILLER_23_81
*555 FILLER_23_87
*556 FILLER_24_109
*557 FILLER_24_121
*558 FILLER_24_133
*559 FILLER_24_139
*560 FILLER_24_141
*561 FILLER_24_153
*562 FILLER_24_165
*563 FILLER_24_177
*564 FILLER_24_18
*565 FILLER_24_189
*566 FILLER_24_195
*567 FILLER_24_197
*568 FILLER_24_209
*569 FILLER_24_221
*570 FILLER_24_233
*571 FILLER_24_245
*572 FILLER_24_251
*573 FILLER_24_253
*574 FILLER_24_26
*575 FILLER_24_265
*576 FILLER_24_277
*577 FILLER_24_289
*578 FILLER_24_29
*579 FILLER_24_297
*580 FILLER_24_41
*581 FILLER_24_53
*582 FILLER_24_6
*583 FILLER_24_65
*584 FILLER_24_77
*585 FILLER_24_83
*586 FILLER_24_85
*587 FILLER_24_97
*588 FILLER_25_105
*589 FILLER_25_111
*590 FILLER_25_113
*591 FILLER_25_125
*592 FILLER_25_137
*593 FILLER_25_149
*594 FILLER_25_15
*595 FILLER_25_161
*596 FILLER_25_167
*597 FILLER_25_169
*598 FILLER_25_181
*599 FILLER_25_193
*600 FILLER_25_205
*601 FILLER_25_217
*602 FILLER_25_223
*603 FILLER_25_225
*604 FILLER_25_237
*605 FILLER_25_249
*606 FILLER_25_261
*607 FILLER_25_27
*608 FILLER_25_273
*609 FILLER_25_279
*610 FILLER_25_281
*611 FILLER_25_293
*612 FILLER_25_3
*613 FILLER_25_39
*614 FILLER_25_51
*615 FILLER_25_55
*616 FILLER_25_57
*617 FILLER_25_69
*618 FILLER_25_81
*619 FILLER_25_93
*620 FILLER_26_109
*621 FILLER_26_121
*622 FILLER_26_133
*623 FILLER_26_139
*624 FILLER_26_141
*625 FILLER_26_153
*626 FILLER_26_165
*627 FILLER_26_177
*628 FILLER_26_18
*629 FILLER_26_189
*630 FILLER_26_195
*631 FILLER_26_197
*632 FILLER_26_209
*633 FILLER_26_221
*634 FILLER_26_233
*635 FILLER_26_245
*636 FILLER_26_251
*637 FILLER_26_253
*638 FILLER_26_26
*639 FILLER_26_265
*640 FILLER_26_277
*641 FILLER_26_289
*642 FILLER_26_29
*643 FILLER_26_297
*644 FILLER_26_41
*645 FILLER_26_6
*646 FILLER_26_65
*647 FILLER_26_77
*648 FILLER_26_83
*649 FILLER_26_85
*650 FILLER_26_97
*651 FILLER_27_105
*652 FILLER_27_111
*653 FILLER_27_113
*654 FILLER_27_125
*655 FILLER_27_137
*656 FILLER_27_149
*657 FILLER_27_161
*658 FILLER_27_167
*659 FILLER_27_169
*660 FILLER_27_181
*661 FILLER_27_193
*662 FILLER_27_20
*663 FILLER_27_205
*664 FILLER_27_217
*665 FILLER_27_223
*666 FILLER_27_225
*667 FILLER_27_237
*668 FILLER_27_249
*669 FILLER_27_261
*670 FILLER_27_273
*671 FILLER_27_279
*672 FILLER_27_281
*673 FILLER_27_293
*674 FILLER_27_3
*675 FILLER_27_32
*676 FILLER_27_44
*677 FILLER_27_57
*678 FILLER_27_69
*679 FILLER_27_8
*680 FILLER_27_81
*681 FILLER_27_93
*682 FILLER_28_109
*683 FILLER_28_121
*684 FILLER_28_133
*685 FILLER_28_139
*686 FILLER_28_141
*687 FILLER_28_15
*688 FILLER_28_153
*689 FILLER_28_165
*690 FILLER_28_177
*691 FILLER_28_189
*692 FILLER_28_195
*693 FILLER_28_197
*694 FILLER_28_209
*695 FILLER_28_221
*696 FILLER_28_233
*697 FILLER_28_245
*698 FILLER_28_251
*699 FILLER_28_253
*700 FILLER_28_265
*701 FILLER_28_27
*702 FILLER_28_277
*703 FILLER_28_289
*704 FILLER_28_29
*705 FILLER_28_297
*706 FILLER_28_3
*707 FILLER_28_41
*708 FILLER_28_53
*709 FILLER_28_65
*710 FILLER_28_77
*711 FILLER_28_83
*712 FILLER_28_85
*713 FILLER_28_97
*714 FILLER_29_105
*715 FILLER_29_111
*716 FILLER_29_113
*717 FILLER_29_125
*718 FILLER_29_137
*719 FILLER_29_149
*720 FILLER_29_16
*721 FILLER_29_161
*722 FILLER_29_167
*723 FILLER_29_169
*724 FILLER_29_181
*725 FILLER_29_193
*726 FILLER_29_205
*727 FILLER_29_217
*728 FILLER_29_223
*729 FILLER_29_225
*730 FILLER_29_237
*731 FILLER_29_249
*732 FILLER_29_261
*733 FILLER_29_273
*734 FILLER_29_279
*735 FILLER_29_28
*736 FILLER_29_281
*737 FILLER_29_293
*738 FILLER_29_40
*739 FILLER_29_52
*740 FILLER_29_57
*741 FILLER_29_69
*742 FILLER_29_81
*743 FILLER_29_93
*744 FILLER_2_109
*745 FILLER_2_121
*746 FILLER_2_133
*747 FILLER_2_139
*748 FILLER_2_141
*749 FILLER_2_15
*750 FILLER_2_153
*751 FILLER_2_165
*752 FILLER_2_177
*753 FILLER_2_189
*754 FILLER_2_195
*755 FILLER_2_197
*756 FILLER_2_209
*757 FILLER_2_221
*758 FILLER_2_233
*759 FILLER_2_245
*760 FILLER_2_251
*761 FILLER_2_253
*762 FILLER_2_265
*763 FILLER_2_27
*764 FILLER_2_277
*765 FILLER_2_289
*766 FILLER_2_29
*767 FILLER_2_297
*768 FILLER_2_3
*769 FILLER_2_41
*770 FILLER_2_53
*771 FILLER_2_65
*772 FILLER_2_77
*773 FILLER_2_83
*774 FILLER_2_85
*775 FILLER_2_97
*776 FILLER_30_109
*777 FILLER_30_121
*778 FILLER_30_133
*779 FILLER_30_139
*780 FILLER_30_141
*781 FILLER_30_153
*782 FILLER_30_165
*783 FILLER_30_177
*784 FILLER_30_189
*785 FILLER_30_195
*786 FILLER_30_197
*787 FILLER_30_209
*788 FILLER_30_221
*789 FILLER_30_233
*790 FILLER_30_24
*791 FILLER_30_245
*792 FILLER_30_251
*793 FILLER_30_253
*794 FILLER_30_265
*795 FILLER_30_277
*796 FILLER_30_289
*797 FILLER_30_29
*798 FILLER_30_297
*799 FILLER_30_3
*800 FILLER_30_41
*801 FILLER_30_53
*802 FILLER_30_65
*803 FILLER_30_77
*804 FILLER_30_83
*805 FILLER_30_85
*806 FILLER_30_97
*807 FILLER_31_105
*808 FILLER_31_111
*809 FILLER_31_113
*810 FILLER_31_125
*811 FILLER_31_137
*812 FILLER_31_149
*813 FILLER_31_15
*814 FILLER_31_161
*815 FILLER_31_167
*816 FILLER_31_169
*817 FILLER_31_181
*818 FILLER_31_193
*819 FILLER_31_205
*820 FILLER_31_217
*821 FILLER_31_223
*822 FILLER_31_225
*823 FILLER_31_237
*824 FILLER_31_249
*825 FILLER_31_261
*826 FILLER_31_273
*827 FILLER_31_279
*828 FILLER_31_281
*829 FILLER_31_293
*830 FILLER_31_3
*831 FILLER_31_36
*832 FILLER_31_48
*833 FILLER_31_57
*834 FILLER_31_69
*835 FILLER_31_81
*836 FILLER_31_9
*837 FILLER_31_93
*838 FILLER_32_109
*839 FILLER_32_121
*840 FILLER_32_133
*841 FILLER_32_139
*842 FILLER_32_141
*843 FILLER_32_153
*844 FILLER_32_165
*845 FILLER_32_177
*846 FILLER_32_189
*847 FILLER_32_195
*848 FILLER_32_197
*849 FILLER_32_209
*850 FILLER_32_21
*851 FILLER_32_221
*852 FILLER_32_233
*853 FILLER_32_245
*854 FILLER_32_251
*855 FILLER_32_253
*856 FILLER_32_265
*857 FILLER_32_27
*858 FILLER_32_277
*859 FILLER_32_289
*860 FILLER_32_29
*861 FILLER_32_297
*862 FILLER_32_3
*863 FILLER_32_41
*864 FILLER_32_53
*865 FILLER_32_65
*866 FILLER_32_77
*867 FILLER_32_83
*868 FILLER_32_85
*869 FILLER_32_9
*870 FILLER_32_97
*871 FILLER_33_105
*872 FILLER_33_111
*873 FILLER_33_113
*874 FILLER_33_125
*875 FILLER_33_137
*876 FILLER_33_149
*877 FILLER_33_15
*878 FILLER_33_161
*879 FILLER_33_167
*880 FILLER_33_169
*881 FILLER_33_181
*882 FILLER_33_193
*883 FILLER_33_205
*884 FILLER_33_217
*885 FILLER_33_223
*886 FILLER_33_225
*887 FILLER_33_237
*888 FILLER_33_249
*889 FILLER_33_261
*890 FILLER_33_27
*891 FILLER_33_273
*892 FILLER_33_279
*893 FILLER_33_281
*894 FILLER_33_293
*895 FILLER_33_3
*896 FILLER_33_39
*897 FILLER_33_51
*898 FILLER_33_55
*899 FILLER_33_57
*900 FILLER_33_69
*901 FILLER_33_81
*902 FILLER_33_93
*903 FILLER_34_109
*904 FILLER_34_121
*905 FILLER_34_133
*906 FILLER_34_139
*907 FILLER_34_141
*908 FILLER_34_153
*909 FILLER_34_165
*910 FILLER_34_177
*911 FILLER_34_189
*912 FILLER_34_195
*913 FILLER_34_197
*914 FILLER_34_209
*915 FILLER_34_21
*916 FILLER_34_221
*917 FILLER_34_233
*918 FILLER_34_245
*919 FILLER_34_251
*920 FILLER_34_253
*921 FILLER_34_265
*922 FILLER_34_27
*923 FILLER_34_277
*924 FILLER_34_289
*925 FILLER_34_29
*926 FILLER_34_297
*927 FILLER_34_3
*928 FILLER_34_41
*929 FILLER_34_45
*930 FILLER_34_66
*931 FILLER_34_78
*932 FILLER_34_85
*933 FILLER_34_9
*934 FILLER_34_97
*935 FILLER_35_105
*936 FILLER_35_111
*937 FILLER_35_113
*938 FILLER_35_125
*939 FILLER_35_137
*940 FILLER_35_149
*941 FILLER_35_15
*942 FILLER_35_161
*943 FILLER_35_167
*944 FILLER_35_169
*945 FILLER_35_181
*946 FILLER_35_193
*947 FILLER_35_205
*948 FILLER_35_217
*949 FILLER_35_223
*950 FILLER_35_225
*951 FILLER_35_237
*952 FILLER_35_249
*953 FILLER_35_261
*954 FILLER_35_27
*955 FILLER_35_273
*956 FILLER_35_279
*957 FILLER_35_281
*958 FILLER_35_293
*959 FILLER_35_3
*960 FILLER_35_39
*961 FILLER_35_51
*962 FILLER_35_55
*963 FILLER_35_57
*964 FILLER_35_69
*965 FILLER_35_81
*966 FILLER_35_93
*967 FILLER_36_109
*968 FILLER_36_121
*969 FILLER_36_133
*970 FILLER_36_139
*971 FILLER_36_141
*972 FILLER_36_153
*973 FILLER_36_165
*974 FILLER_36_177
*975 FILLER_36_189
*976 FILLER_36_195
*977 FILLER_36_197
*978 FILLER_36_209
*979 FILLER_36_221
*980 FILLER_36_233
*981 FILLER_36_24
*982 FILLER_36_245
*983 FILLER_36_251
*984 FILLER_36_253
*985 FILLER_36_265
*986 FILLER_36_277
*987 FILLER_36_289
*988 FILLER_36_29
*989 FILLER_36_297
*990 FILLER_36_3
*991 FILLER_36_41
*992 FILLER_36_53
*993 FILLER_36_65
*994 FILLER_36_77
*995 FILLER_36_83
*996 FILLER_36_85
*997 FILLER_36_97
*998 FILLER_37_105
*999 FILLER_37_111
*1000 FILLER_37_113
*1001 FILLER_37_125
*1002 FILLER_37_137
*1003 FILLER_37_149
*1004 FILLER_37_161
*1005 FILLER_37_167
*1006 FILLER_37_169
*1007 FILLER_37_181
*1008 FILLER_37_193
*1009 FILLER_37_205
*1010 FILLER_37_21
*1011 FILLER_37_217
*1012 FILLER_37_223
*1013 FILLER_37_225
*1014 FILLER_37_237
*1015 FILLER_37_249
*1016 FILLER_37_261
*1017 FILLER_37_273
*1018 FILLER_37_279
*1019 FILLER_37_281
*1020 FILLER_37_293
*1021 FILLER_37_3
*1022 FILLER_37_33
*1023 FILLER_37_45
*1024 FILLER_37_53
*1025 FILLER_37_57
*1026 FILLER_37_69
*1027 FILLER_37_81
*1028 FILLER_37_9
*1029 FILLER_37_93
*1030 FILLER_38_109
*1031 FILLER_38_121
*1032 FILLER_38_133
*1033 FILLER_38_139
*1034 FILLER_38_141
*1035 FILLER_38_153
*1036 FILLER_38_165
*1037 FILLER_38_177
*1038 FILLER_38_189
*1039 FILLER_38_195
*1040 FILLER_38_197
*1041 FILLER_38_209
*1042 FILLER_38_21
*1043 FILLER_38_221
*1044 FILLER_38_233
*1045 FILLER_38_245
*1046 FILLER_38_251
*1047 FILLER_38_253
*1048 FILLER_38_265
*1049 FILLER_38_27
*1050 FILLER_38_277
*1051 FILLER_38_289
*1052 FILLER_38_29
*1053 FILLER_38_297
*1054 FILLER_38_3
*1055 FILLER_38_41
*1056 FILLER_38_53
*1057 FILLER_38_65
*1058 FILLER_38_77
*1059 FILLER_38_83
*1060 FILLER_38_85
*1061 FILLER_38_9
*1062 FILLER_38_97
*1063 FILLER_39_105
*1064 FILLER_39_111
*1065 FILLER_39_113
*1066 FILLER_39_125
*1067 FILLER_39_137
*1068 FILLER_39_149
*1069 FILLER_39_161
*1070 FILLER_39_167
*1071 FILLER_39_169
*1072 FILLER_39_181
*1073 FILLER_39_193
*1074 FILLER_39_205
*1075 FILLER_39_217
*1076 FILLER_39_223
*1077 FILLER_39_225
*1078 FILLER_39_237
*1079 FILLER_39_249
*1080 FILLER_39_261
*1081 FILLER_39_27
*1082 FILLER_39_273
*1083 FILLER_39_279
*1084 FILLER_39_281
*1085 FILLER_39_293
*1086 FILLER_39_3
*1087 FILLER_39_39
*1088 FILLER_39_51
*1089 FILLER_39_55
*1090 FILLER_39_57
*1091 FILLER_39_69
*1092 FILLER_39_81
*1093 FILLER_39_93
*1094 FILLER_3_105
*1095 FILLER_3_111
*1096 FILLER_3_113
*1097 FILLER_3_125
*1098 FILLER_3_137
*1099 FILLER_3_149
*1100 FILLER_3_15
*1101 FILLER_3_161
*1102 FILLER_3_167
*1103 FILLER_3_169
*1104 FILLER_3_181
*1105 FILLER_3_193
*1106 FILLER_3_205
*1107 FILLER_3_217
*1108 FILLER_3_223
*1109 FILLER_3_225
*1110 FILLER_3_237
*1111 FILLER_3_249
*1112 FILLER_3_261
*1113 FILLER_3_27
*1114 FILLER_3_273
*1115 FILLER_3_279
*1116 FILLER_3_281
*1117 FILLER_3_293
*1118 FILLER_3_3
*1119 FILLER_3_39
*1120 FILLER_3_51
*1121 FILLER_3_55
*1122 FILLER_3_57
*1123 FILLER_3_69
*1124 FILLER_3_81
*1125 FILLER_3_93
*1126 FILLER_40_109
*1127 FILLER_40_121
*1128 FILLER_40_133
*1129 FILLER_40_139
*1130 FILLER_40_141
*1131 FILLER_40_153
*1132 FILLER_40_165
*1133 FILLER_40_177
*1134 FILLER_40_189
*1135 FILLER_40_195
*1136 FILLER_40_197
*1137 FILLER_40_209
*1138 FILLER_40_221
*1139 FILLER_40_233
*1140 FILLER_40_24
*1141 FILLER_40_245
*1142 FILLER_40_251
*1143 FILLER_40_253
*1144 FILLER_40_265
*1145 FILLER_40_277
*1146 FILLER_40_289
*1147 FILLER_40_29
*1148 FILLER_40_297
*1149 FILLER_40_3
*1150 FILLER_40_41
*1151 FILLER_40_53
*1152 FILLER_40_65
*1153 FILLER_40_77
*1154 FILLER_40_83
*1155 FILLER_40_85
*1156 FILLER_40_97
*1157 FILLER_41_105
*1158 FILLER_41_111
*1159 FILLER_41_113
*1160 FILLER_41_125
*1161 FILLER_41_137
*1162 FILLER_41_149
*1163 FILLER_41_161
*1164 FILLER_41_167
*1165 FILLER_41_169
*1166 FILLER_41_181
*1167 FILLER_41_193
*1168 FILLER_41_205
*1169 FILLER_41_217
*1170 FILLER_41_223
*1171 FILLER_41_225
*1172 FILLER_41_237
*1173 FILLER_41_249
*1174 FILLER_41_261
*1175 FILLER_41_273
*1176 FILLER_41_279
*1177 FILLER_41_28
*1178 FILLER_41_281
*1179 FILLER_41_293
*1180 FILLER_41_3
*1181 FILLER_41_40
*1182 FILLER_41_52
*1183 FILLER_41_57
*1184 FILLER_41_69
*1185 FILLER_41_7
*1186 FILLER_41_81
*1187 FILLER_41_93
*1188 FILLER_42_109
*1189 FILLER_42_121
*1190 FILLER_42_133
*1191 FILLER_42_139
*1192 FILLER_42_141
*1193 FILLER_42_153
*1194 FILLER_42_165
*1195 FILLER_42_177
*1196 FILLER_42_189
*1197 FILLER_42_195
*1198 FILLER_42_197
*1199 FILLER_42_209
*1200 FILLER_42_221
*1201 FILLER_42_233
*1202 FILLER_42_24
*1203 FILLER_42_245
*1204 FILLER_42_251
*1205 FILLER_42_253
*1206 FILLER_42_265
*1207 FILLER_42_277
*1208 FILLER_42_289
*1209 FILLER_42_29
*1210 FILLER_42_297
*1211 FILLER_42_3
*1212 FILLER_42_41
*1213 FILLER_42_53
*1214 FILLER_42_65
*1215 FILLER_42_77
*1216 FILLER_42_83
*1217 FILLER_42_85
*1218 FILLER_42_97
*1219 FILLER_43_105
*1220 FILLER_43_11
*1221 FILLER_43_111
*1222 FILLER_43_113
*1223 FILLER_43_125
*1224 FILLER_43_137
*1225 FILLER_43_149
*1226 FILLER_43_161
*1227 FILLER_43_167
*1228 FILLER_43_169
*1229 FILLER_43_181
*1230 FILLER_43_19
*1231 FILLER_43_193
*1232 FILLER_43_205
*1233 FILLER_43_217
*1234 FILLER_43_223
*1235 FILLER_43_225
*1236 FILLER_43_237
*1237 FILLER_43_249
*1238 FILLER_43_261
*1239 FILLER_43_273
*1240 FILLER_43_279
*1241 FILLER_43_281
*1242 FILLER_43_293
*1243 FILLER_43_31
*1244 FILLER_43_43
*1245 FILLER_43_55
*1246 FILLER_43_57
*1247 FILLER_43_69
*1248 FILLER_43_81
*1249 FILLER_43_93
*1250 FILLER_44_109
*1251 FILLER_44_121
*1252 FILLER_44_133
*1253 FILLER_44_139
*1254 FILLER_44_141
*1255 FILLER_44_15
*1256 FILLER_44_153
*1257 FILLER_44_165
*1258 FILLER_44_177
*1259 FILLER_44_189
*1260 FILLER_44_195
*1261 FILLER_44_197
*1262 FILLER_44_209
*1263 FILLER_44_221
*1264 FILLER_44_233
*1265 FILLER_44_245
*1266 FILLER_44_251
*1267 FILLER_44_253
*1268 FILLER_44_265
*1269 FILLER_44_27
*1270 FILLER_44_277
*1271 FILLER_44_289
*1272 FILLER_44_29
*1273 FILLER_44_297
*1274 FILLER_44_41
*1275 FILLER_44_53
*1276 FILLER_44_65
*1277 FILLER_44_7
*1278 FILLER_44_77
*1279 FILLER_44_83
*1280 FILLER_44_85
*1281 FILLER_44_97
*1282 FILLER_45_105
*1283 FILLER_45_111
*1284 FILLER_45_113
*1285 FILLER_45_125
*1286 FILLER_45_13
*1287 FILLER_45_137
*1288 FILLER_45_149
*1289 FILLER_45_161
*1290 FILLER_45_167
*1291 FILLER_45_169
*1292 FILLER_45_181
*1293 FILLER_45_193
*1294 FILLER_45_205
*1295 FILLER_45_217
*1296 FILLER_45_223
*1297 FILLER_45_225
*1298 FILLER_45_237
*1299 FILLER_45_249
*1300 FILLER_45_25
*1301 FILLER_45_261
*1302 FILLER_45_273
*1303 FILLER_45_279
*1304 FILLER_45_281
*1305 FILLER_45_293
*1306 FILLER_45_3
*1307 FILLER_45_37
*1308 FILLER_45_49
*1309 FILLER_45_55
*1310 FILLER_45_57
*1311 FILLER_45_69
*1312 FILLER_45_81
*1313 FILLER_45_93
*1314 FILLER_46_109
*1315 FILLER_46_121
*1316 FILLER_46_133
*1317 FILLER_46_139
*1318 FILLER_46_141
*1319 FILLER_46_15
*1320 FILLER_46_153
*1321 FILLER_46_165
*1322 FILLER_46_177
*1323 FILLER_46_189
*1324 FILLER_46_195
*1325 FILLER_46_197
*1326 FILLER_46_209
*1327 FILLER_46_221
*1328 FILLER_46_233
*1329 FILLER_46_245
*1330 FILLER_46_251
*1331 FILLER_46_253
*1332 FILLER_46_265
*1333 FILLER_46_27
*1334 FILLER_46_277
*1335 FILLER_46_289
*1336 FILLER_46_29
*1337 FILLER_46_297
*1338 FILLER_46_3
*1339 FILLER_46_41
*1340 FILLER_46_53
*1341 FILLER_46_65
*1342 FILLER_46_77
*1343 FILLER_46_83
*1344 FILLER_46_85
*1345 FILLER_46_97
*1346 FILLER_47_105
*1347 FILLER_47_111
*1348 FILLER_47_113
*1349 FILLER_47_125
*1350 FILLER_47_137
*1351 FILLER_47_149
*1352 FILLER_47_15
*1353 FILLER_47_161
*1354 FILLER_47_167
*1355 FILLER_47_169
*1356 FILLER_47_181
*1357 FILLER_47_193
*1358 FILLER_47_205
*1359 FILLER_47_217
*1360 FILLER_47_223
*1361 FILLER_47_225
*1362 FILLER_47_237
*1363 FILLER_47_249
*1364 FILLER_47_261
*1365 FILLER_47_27
*1366 FILLER_47_273
*1367 FILLER_47_279
*1368 FILLER_47_281
*1369 FILLER_47_293
*1370 FILLER_47_3
*1371 FILLER_47_39
*1372 FILLER_47_51
*1373 FILLER_47_55
*1374 FILLER_47_57
*1375 FILLER_47_69
*1376 FILLER_47_81
*1377 FILLER_47_93
*1378 FILLER_48_109
*1379 FILLER_48_121
*1380 FILLER_48_133
*1381 FILLER_48_139
*1382 FILLER_48_141
*1383 FILLER_48_15
*1384 FILLER_48_153
*1385 FILLER_48_165
*1386 FILLER_48_177
*1387 FILLER_48_189
*1388 FILLER_48_195
*1389 FILLER_48_197
*1390 FILLER_48_209
*1391 FILLER_48_221
*1392 FILLER_48_233
*1393 FILLER_48_245
*1394 FILLER_48_251
*1395 FILLER_48_253
*1396 FILLER_48_265
*1397 FILLER_48_27
*1398 FILLER_48_277
*1399 FILLER_48_289
*1400 FILLER_48_29
*1401 FILLER_48_297
*1402 FILLER_48_3
*1403 FILLER_48_41
*1404 FILLER_48_53
*1405 FILLER_48_65
*1406 FILLER_48_77
*1407 FILLER_48_83
*1408 FILLER_48_85
*1409 FILLER_48_97
*1410 FILLER_49_105
*1411 FILLER_49_111
*1412 FILLER_49_113
*1413 FILLER_49_125
*1414 FILLER_49_137
*1415 FILLER_49_149
*1416 FILLER_49_161
*1417 FILLER_49_167
*1418 FILLER_49_169
*1419 FILLER_49_181
*1420 FILLER_49_193
*1421 FILLER_49_205
*1422 FILLER_49_21
*1423 FILLER_49_217
*1424 FILLER_49_223
*1425 FILLER_49_225
*1426 FILLER_49_237
*1427 FILLER_49_249
*1428 FILLER_49_261
*1429 FILLER_49_273
*1430 FILLER_49_279
*1431 FILLER_49_281
*1432 FILLER_49_293
*1433 FILLER_49_3
*1434 FILLER_49_33
*1435 FILLER_49_45
*1436 FILLER_49_53
*1437 FILLER_49_57
*1438 FILLER_49_69
*1439 FILLER_49_81
*1440 FILLER_49_9
*1441 FILLER_49_93
*1442 FILLER_4_109
*1443 FILLER_4_121
*1444 FILLER_4_133
*1445 FILLER_4_139
*1446 FILLER_4_141
*1447 FILLER_4_15
*1448 FILLER_4_153
*1449 FILLER_4_165
*1450 FILLER_4_177
*1451 FILLER_4_189
*1452 FILLER_4_195
*1453 FILLER_4_197
*1454 FILLER_4_209
*1455 FILLER_4_221
*1456 FILLER_4_233
*1457 FILLER_4_245
*1458 FILLER_4_251
*1459 FILLER_4_253
*1460 FILLER_4_265
*1461 FILLER_4_27
*1462 FILLER_4_277
*1463 FILLER_4_289
*1464 FILLER_4_29
*1465 FILLER_4_297
*1466 FILLER_4_3
*1467 FILLER_4_41
*1468 FILLER_4_53
*1469 FILLER_4_65
*1470 FILLER_4_77
*1471 FILLER_4_83
*1472 FILLER_4_85
*1473 FILLER_4_97
*1474 FILLER_50_109
*1475 FILLER_50_121
*1476 FILLER_50_133
*1477 FILLER_50_139
*1478 FILLER_50_141
*1479 FILLER_50_153
*1480 FILLER_50_16
*1481 FILLER_50_165
*1482 FILLER_50_177
*1483 FILLER_50_189
*1484 FILLER_50_195
*1485 FILLER_50_197
*1486 FILLER_50_209
*1487 FILLER_50_221
*1488 FILLER_50_233
*1489 FILLER_50_245
*1490 FILLER_50_251
*1491 FILLER_50_253
*1492 FILLER_50_265
*1493 FILLER_50_277
*1494 FILLER_50_289
*1495 FILLER_50_29
*1496 FILLER_50_297
*1497 FILLER_50_41
*1498 FILLER_50_53
*1499 FILLER_50_65
*1500 FILLER_50_77
*1501 FILLER_50_83
*1502 FILLER_50_85
*1503 FILLER_50_97
*1504 FILLER_51_105
*1505 FILLER_51_111
*1506 FILLER_51_113
*1507 FILLER_51_125
*1508 FILLER_51_137
*1509 FILLER_51_149
*1510 FILLER_51_15
*1511 FILLER_51_161
*1512 FILLER_51_167
*1513 FILLER_51_169
*1514 FILLER_51_181
*1515 FILLER_51_193
*1516 FILLER_51_205
*1517 FILLER_51_217
*1518 FILLER_51_223
*1519 FILLER_51_225
*1520 FILLER_51_237
*1521 FILLER_51_249
*1522 FILLER_51_261
*1523 FILLER_51_27
*1524 FILLER_51_273
*1525 FILLER_51_279
*1526 FILLER_51_281
*1527 FILLER_51_293
*1528 FILLER_51_3
*1529 FILLER_51_39
*1530 FILLER_51_51
*1531 FILLER_51_55
*1532 FILLER_51_57
*1533 FILLER_51_69
*1534 FILLER_51_81
*1535 FILLER_51_93
*1536 FILLER_52_109
*1537 FILLER_52_121
*1538 FILLER_52_133
*1539 FILLER_52_139
*1540 FILLER_52_141
*1541 FILLER_52_15
*1542 FILLER_52_153
*1543 FILLER_52_165
*1544 FILLER_52_177
*1545 FILLER_52_189
*1546 FILLER_52_195
*1547 FILLER_52_197
*1548 FILLER_52_209
*1549 FILLER_52_221
*1550 FILLER_52_233
*1551 FILLER_52_245
*1552 FILLER_52_251
*1553 FILLER_52_253
*1554 FILLER_52_265
*1555 FILLER_52_27
*1556 FILLER_52_277
*1557 FILLER_52_289
*1558 FILLER_52_29
*1559 FILLER_52_297
*1560 FILLER_52_3
*1561 FILLER_52_41
*1562 FILLER_52_53
*1563 FILLER_52_65
*1564 FILLER_52_77
*1565 FILLER_52_83
*1566 FILLER_52_85
*1567 FILLER_52_97
*1568 FILLER_53_105
*1569 FILLER_53_111
*1570 FILLER_53_113
*1571 FILLER_53_125
*1572 FILLER_53_137
*1573 FILLER_53_149
*1574 FILLER_53_15
*1575 FILLER_53_161
*1576 FILLER_53_167
*1577 FILLER_53_169
*1578 FILLER_53_181
*1579 FILLER_53_193
*1580 FILLER_53_205
*1581 FILLER_53_217