*SPEF "ieee 1481-1999"
*DESIGN "user_module_341631511790879314"
*DATE "11:11:11 Fri 11 11, 1111"
*VENDOR "OpenRCX"
*PROGRAM "Parallel Extraction"
*VERSION "1.0"
*DESIGN_FLOW "NAME_SCOPE LOCAL" "PIN_CAP NONE"
*DIVIDER /
*DELIMITER :
*BUS_DELIMITER []
*T_UNIT 1 NS
*C_UNIT 1 PF
*R_UNIT 1 OHM
*L_UNIT 1 HENRY

*NAME_MAP
*1 io_in[0]
*2 io_in[1]
*3 io_in[2]
*4 io_in[3]
*5 io_in[4]
*6 io_in[5]
*7 io_in[6]
*8 io_in[7]
*9 io_out[0]
*10 io_out[1]
*11 io_out[2]
*12 io_out[3]
*13 io_out[4]
*14 io_out[5]
*15 io_out[6]
*16 io_out[7]
*19 _00_
*20 _01_
*21 _02_
*22 _03_
*23 _04_
*24 _05_
*25 _06_
*26 _07_
*27 _08_
*28 _09_
*29 _10_
*30 _11_
*31 _12_
*32 _13_
*33 _14_
*34 _15_
*35 _16_
*36 _17_
*37 _18_
*38 _19_
*39 _20_
*40 _21_
*41 _22_
*42 _23_
*43 clknet_0_io_in[0]
*44 clknet_1_0__leaf_io_in[0]
*45 clknet_1_1__leaf_io_in[0]
*46 flipflop1\.d
*47 flipflop1\.q
*48 flipflop10\.q
*49 flipflop11\.notq
*50 flipflop11\.q
*51 flipflop12\.q
*52 flipflop13\.q
*53 flipflop2\.notq
*54 flipflop2\.q
*55 flipflop3\.q
*56 flipflop4\.q
*57 flipflop5\.d
*58 flipflop5\.q
*59 flipflop6\.d
*60 flipflop6\.q
*61 flipflop7\.d
*62 flipflop7\.q
*63 flipflop8\.d
*64 flipflop8\.q
*65 flipflop9\.q
*66 mux15\.out
*67 mux16\.out
*68 net1
*69 net2
*70 net3
*71 net4
*72 net5
*73 net6
*74 net7
*75 FILLER_0_109
*76 FILLER_0_113
*77 FILLER_0_125
*78 FILLER_0_137
*79 FILLER_0_141
*80 FILLER_0_153
*81 FILLER_0_165
*82 FILLER_0_169
*83 FILLER_0_181
*84 FILLER_0_193
*85 FILLER_0_197
*86 FILLER_0_20
*87 FILLER_0_209
*88 FILLER_0_221
*89 FILLER_0_225
*90 FILLER_0_237
*91 FILLER_0_249
*92 FILLER_0_253
*93 FILLER_0_265
*94 FILLER_0_277
*95 FILLER_0_281
*96 FILLER_0_29
*97 FILLER_0_293
*98 FILLER_0_35
*99 FILLER_0_52
*100 FILLER_0_73
*101 FILLER_0_81
*102 FILLER_0_85
*103 FILLER_0_97
*104 FILLER_10_102
*105 FILLER_10_11
*106 FILLER_10_114
*107 FILLER_10_126
*108 FILLER_10_138
*109 FILLER_10_141
*110 FILLER_10_153
*111 FILLER_10_165
*112 FILLER_10_177
*113 FILLER_10_189
*114 FILLER_10_195
*115 FILLER_10_197
*116 FILLER_10_209
*117 FILLER_10_22
*118 FILLER_10_221
*119 FILLER_10_233
*120 FILLER_10_245
*121 FILLER_10_251
*122 FILLER_10_253
*123 FILLER_10_265
*124 FILLER_10_277
*125 FILLER_10_289
*126 FILLER_10_297
*127 FILLER_10_3
*128 FILLER_10_32
*129 FILLER_10_44
*130 FILLER_10_52
*131 FILLER_10_58
*132 FILLER_10_70
*133 FILLER_10_82
*134 FILLER_10_90
*135 FILLER_11_107
*136 FILLER_11_111
*137 FILLER_11_113
*138 FILLER_11_125
*139 FILLER_11_137
*140 FILLER_11_149
*141 FILLER_11_16
*142 FILLER_11_161
*143 FILLER_11_167
*144 FILLER_11_169
*145 FILLER_11_181
*146 FILLER_11_193
*147 FILLER_11_20
*148 FILLER_11_205
*149 FILLER_11_217
*150 FILLER_11_223
*151 FILLER_11_225
*152 FILLER_11_237
*153 FILLER_11_249
*154 FILLER_11_261
*155 FILLER_11_273
*156 FILLER_11_279
*157 FILLER_11_281
*158 FILLER_11_293
*159 FILLER_11_3
*160 FILLER_11_30
*161 FILLER_11_34
*162 FILLER_11_44
*163 FILLER_11_51
*164 FILLER_11_55
*165 FILLER_11_57
*166 FILLER_11_69
*167 FILLER_11_77
*168 FILLER_11_83
*169 FILLER_11_95
*170 FILLER_12_109
*171 FILLER_12_12
*172 FILLER_12_121
*173 FILLER_12_133
*174 FILLER_12_139
*175 FILLER_12_141
*176 FILLER_12_153
*177 FILLER_12_16
*178 FILLER_12_165
*179 FILLER_12_177
*180 FILLER_12_189
*181 FILLER_12_195
*182 FILLER_12_197
*183 FILLER_12_209
*184 FILLER_12_221
*185 FILLER_12_23
*186 FILLER_12_233
*187 FILLER_12_245
*188 FILLER_12_251
*189 FILLER_12_253
*190 FILLER_12_265
*191 FILLER_12_27
*192 FILLER_12_277
*193 FILLER_12_289
*194 FILLER_12_29
*195 FILLER_12_297
*196 FILLER_12_41
*197 FILLER_12_49
*198 FILLER_12_53
*199 FILLER_12_6
*200 FILLER_12_65
*201 FILLER_12_77
*202 FILLER_12_83
*203 FILLER_12_85
*204 FILLER_12_97
*205 FILLER_13_105
*206 FILLER_13_111
*207 FILLER_13_113
*208 FILLER_13_125
*209 FILLER_13_137
*210 FILLER_13_149
*211 FILLER_13_15
*212 FILLER_13_161
*213 FILLER_13_167
*214 FILLER_13_169
*215 FILLER_13_181
*216 FILLER_13_193
*217 FILLER_13_205
*218 FILLER_13_217
*219 FILLER_13_223
*220 FILLER_13_225
*221 FILLER_13_237
*222 FILLER_13_249
*223 FILLER_13_261
*224 FILLER_13_27
*225 FILLER_13_273
*226 FILLER_13_279
*227 FILLER_13_281
*228 FILLER_13_293
*229 FILLER_13_3
*230 FILLER_13_39
*231 FILLER_13_51
*232 FILLER_13_55
*233 FILLER_13_57
*234 FILLER_13_69
*235 FILLER_13_81
*236 FILLER_13_93
*237 FILLER_14_106
*238 FILLER_14_11
*239 FILLER_14_118
*240 FILLER_14_130
*241 FILLER_14_138
*242 FILLER_14_141
*243 FILLER_14_15
*244 FILLER_14_153
*245 FILLER_14_165
*246 FILLER_14_177
*247 FILLER_14_189
*248 FILLER_14_195
*249 FILLER_14_197
*250 FILLER_14_209
*251 FILLER_14_221
*252 FILLER_14_233
*253 FILLER_14_245
*254 FILLER_14_251
*255 FILLER_14_253
*256 FILLER_14_265
*257 FILLER_14_27
*258 FILLER_14_277
*259 FILLER_14_289
*260 FILLER_14_297
*261 FILLER_14_3
*262 FILLER_14_38
*263 FILLER_14_50
*264 FILLER_14_62
*265 FILLER_14_74
*266 FILLER_14_82
*267 FILLER_14_85
*268 FILLER_14_94
*269 FILLER_15_105
*270 FILLER_15_111
*271 FILLER_15_113
*272 FILLER_15_125
*273 FILLER_15_137
*274 FILLER_15_149
*275 FILLER_15_15
*276 FILLER_15_161
*277 FILLER_15_167
*278 FILLER_15_169
*279 FILLER_15_181
*280 FILLER_15_193
*281 FILLER_15_205
*282 FILLER_15_217
*283 FILLER_15_223
*284 FILLER_15_225
*285 FILLER_15_237
*286 FILLER_15_249
*287 FILLER_15_261
*288 FILLER_15_27
*289 FILLER_15_273
*290 FILLER_15_279
*291 FILLER_15_281
*292 FILLER_15_293
*293 FILLER_15_3
*294 FILLER_15_39
*295 FILLER_15_51
*296 FILLER_15_55
*297 FILLER_15_57
*298 FILLER_15_69
*299 FILLER_15_81
*300 FILLER_15_93
*301 FILLER_16_109
*302 FILLER_16_121
*303 FILLER_16_133
*304 FILLER_16_139
*305 FILLER_16_141
*306 FILLER_16_153
*307 FILLER_16_165
*308 FILLER_16_177
*309 FILLER_16_18
*310 FILLER_16_189
*311 FILLER_16_195
*312 FILLER_16_197
*313 FILLER_16_209
*314 FILLER_16_221
*315 FILLER_16_233
*316 FILLER_16_245
*317 FILLER_16_251
*318 FILLER_16_253
*319 FILLER_16_26
*320 FILLER_16_265
*321 FILLER_16_277
*322 FILLER_16_289
*323 FILLER_16_29
*324 FILLER_16_297
*325 FILLER_16_41
*326 FILLER_16_53
*327 FILLER_16_6
*328 FILLER_16_65
*329 FILLER_16_77
*330 FILLER_16_83
*331 FILLER_16_85
*332 FILLER_16_97
*333 FILLER_17_105
*334 FILLER_17_111
*335 FILLER_17_113
*336 FILLER_17_125
*337 FILLER_17_137
*338 FILLER_17_149
*339 FILLER_17_15
*340 FILLER_17_161
*341 FILLER_17_167
*342 FILLER_17_169
*343 FILLER_17_181
*344 FILLER_17_193
*345 FILLER_17_205
*346 FILLER_17_217
*347 FILLER_17_223
*348 FILLER_17_225
*349 FILLER_17_237
*350 FILLER_17_249
*351 FILLER_17_261
*352 FILLER_17_27
*353 FILLER_17_273
*354 FILLER_17_279
*355 FILLER_17_281
*356 FILLER_17_293
*357 FILLER_17_3
*358 FILLER_17_40
*359 FILLER_17_52
*360 FILLER_17_57
*361 FILLER_17_69
*362 FILLER_17_81
*363 FILLER_17_93
*364 FILLER_18_109
*365 FILLER_18_121
*366 FILLER_18_133
*367 FILLER_18_139
*368 FILLER_18_141
*369 FILLER_18_15
*370 FILLER_18_153
*371 FILLER_18_165
*372 FILLER_18_177
*373 FILLER_18_189
*374 FILLER_18_195
*375 FILLER_18_197
*376 FILLER_18_209
*377 FILLER_18_221
*378 FILLER_18_233
*379 FILLER_18_245
*380 FILLER_18_251
*381 FILLER_18_253
*382 FILLER_18_265
*383 FILLER_18_27
*384 FILLER_18_277
*385 FILLER_18_289
*386 FILLER_18_29
*387 FILLER_18_297
*388 FILLER_18_3
*389 FILLER_18_41
*390 FILLER_18_53
*391 FILLER_18_65
*392 FILLER_18_77
*393 FILLER_18_83
*394 FILLER_18_85
*395 FILLER_18_97
*396 FILLER_19_105
*397 FILLER_19_111
*398 FILLER_19_113
*399 FILLER_19_125
*400 FILLER_19_137
*401 FILLER_19_149
*402 FILLER_19_15
*403 FILLER_19_161
*404 FILLER_19_167
*405 FILLER_19_169
*406 FILLER_19_181
*407 FILLER_19_193
*408 FILLER_19_205
*409 FILLER_19_217
*410 FILLER_19_223
*411 FILLER_19_225
*412 FILLER_19_237
*413 FILLER_19_249
*414 FILLER_19_261
*415 FILLER_19_27
*416 FILLER_19_273
*417 FILLER_19_279
*418 FILLER_19_281
*419 FILLER_19_293
*420 FILLER_19_3
*421 FILLER_19_39
*422 FILLER_19_51
*423 FILLER_19_55
*424 FILLER_19_57
*425 FILLER_19_69
*426 FILLER_19_81
*427 FILLER_19_93
*428 FILLER_1_103
*429 FILLER_1_111
*430 FILLER_1_113
*431 FILLER_1_125
*432 FILLER_1_137
*433 FILLER_1_149
*434 FILLER_1_15
*435 FILLER_1_161
*436 FILLER_1_167
*437 FILLER_1_169
*438 FILLER_1_181
*439 FILLER_1_193
*440 FILLER_1_205
*441 FILLER_1_217
*442 FILLER_1_223
*443 FILLER_1_225
*444 FILLER_1_237
*445 FILLER_1_249
*446 FILLER_1_261
*447 FILLER_1_273
*448 FILLER_1_279
*449 FILLER_1_281
*450 FILLER_1_293
*451 FILLER_1_3
*452 FILLER_1_36
*453 FILLER_1_48
*454 FILLER_1_52
*455 FILLER_1_60
*456 FILLER_1_67
*457 FILLER_1_79
*458 FILLER_1_91
*459 FILLER_20_109
*460 FILLER_20_121
*461 FILLER_20_133
*462 FILLER_20_139
*463 FILLER_20_141
*464 FILLER_20_153
*465 FILLER_20_165
*466 FILLER_20_177
*467 FILLER_20_18
*468 FILLER_20_189
*469 FILLER_20_195
*470 FILLER_20_197
*471 FILLER_20_209
*472 FILLER_20_221
*473 FILLER_20_233
*474 FILLER_20_245
*475 FILLER_20_251
*476 FILLER_20_253
*477 FILLER_20_26
*478 FILLER_20_265
*479 FILLER_20_277
*480 FILLER_20_289
*481 FILLER_20_29
*482 FILLER_20_297
*483 FILLER_20_41
*484 FILLER_20_53
*485 FILLER_20_6
*486 FILLER_20_65
*487 FILLER_20_77
*488 FILLER_20_83
*489 FILLER_20_85
*490 FILLER_20_97
*491 FILLER_21_105
*492 FILLER_21_111
*493 FILLER_21_113
*494 FILLER_21_125
*495 FILLER_21_137
*496 FILLER_21_149
*497 FILLER_21_15
*498 FILLER_21_161
*499 FILLER_21_167
*500 FILLER_21_169
*501 FILLER_21_181
*502 FILLER_21_193
*503 FILLER_21_205
*504 FILLER_21_217
*505 FILLER_21_223
*506 FILLER_21_225
*507 FILLER_21_237
*508 FILLER_21_249
*509 FILLER_21_261
*510 FILLER_21_27
*511 FILLER_21_273
*512 FILLER_21_279
*513 FILLER_21_281
*514 FILLER_21_293
*515 FILLER_21_3
*516 FILLER_21_39
*517 FILLER_21_51
*518 FILLER_21_55
*519 FILLER_21_57
*520 FILLER_21_69
*521 FILLER_21_81
*522 FILLER_21_93
*523 FILLER_22_109
*524 FILLER_22_121
*525 FILLER_22_133
*526 FILLER_22_139
*527 FILLER_22_141
*528 FILLER_22_15
*529 FILLER_22_153
*530 FILLER_22_165
*531 FILLER_22_177
*532 FILLER_22_189
*533 FILLER_22_195
*534 FILLER_22_197
*535 FILLER_22_209
*536 FILLER_22_221
*537 FILLER_22_233
*538 FILLER_22_245
*539 FILLER_22_251
*540 FILLER_22_253
*541 FILLER_22_265
*542 FILLER_22_27
*543 FILLER_22_277
*544 FILLER_22_289
*545 FILLER_22_29
*546 FILLER_22_297
*547 FILLER_22_3
*548 FILLER_22_41
*549 FILLER_22_53
*550 FILLER_22_65
*551 FILLER_22_77
*552 FILLER_22_83
*553 FILLER_22_85
*554 FILLER_22_97
*555 FILLER_23_105
*556 FILLER_23_111
*557 FILLER_23_113
*558 FILLER_23_125
*559 FILLER_23_137
*560 FILLER_23_149
*561 FILLER_23_15
*562 FILLER_23_161
*563 FILLER_23_167
*564 FILLER_23_169
*565 FILLER_23_181
*566 FILLER_23_193
*567 FILLER_23_205
*568 FILLER_23_217
*569 FILLER_23_223
*570 FILLER_23_225
*571 FILLER_23_237
*572 FILLER_23_249
*573 FILLER_23_261
*574 FILLER_23_27
*575 FILLER_23_273
*576 FILLER_23_279
*577 FILLER_23_281
*578 FILLER_23_293
*579 FILLER_23_3
*580 FILLER_23_39
*581 FILLER_23_51
*582 FILLER_23_55
*583 FILLER_23_57
*584 FILLER_23_69
*585 FILLER_23_81
*586 FILLER_23_93
*587 FILLER_24_109
*588 FILLER_24_11
*589 FILLER_24_121
*590 FILLER_24_133
*591 FILLER_24_139
*592 FILLER_24_141
*593 FILLER_24_153
*594 FILLER_24_165
*595 FILLER_24_177
*596 FILLER_24_189
*597 FILLER_24_195
*598 FILLER_24_197
*599 FILLER_24_209
*600 FILLER_24_221
*601 FILLER_24_23
*602 FILLER_24_233
*603 FILLER_24_245
*604 FILLER_24_251
*605 FILLER_24_253
*606 FILLER_24_265
*607 FILLER_24_27
*608 FILLER_24_277
*609 FILLER_24_289
*610 FILLER_24_29
*611 FILLER_24_297
*612 FILLER_24_3
*613 FILLER_24_41
*614 FILLER_24_53
*615 FILLER_24_65
*616 FILLER_24_77
*617 FILLER_24_83
*618 FILLER_24_85
*619 FILLER_24_97
*620 FILLER_25_105
*621 FILLER_25_111
*622 FILLER_25_113
*623 FILLER_25_125
*624 FILLER_25_137
*625 FILLER_25_149
*626 FILLER_25_15
*627 FILLER_25_161
*628 FILLER_25_167
*629 FILLER_25_169
*630 FILLER_25_181
*631 FILLER_25_193
*632 FILLER_25_205
*633 FILLER_25_217
*634 FILLER_25_223
*635 FILLER_25_225
*636 FILLER_25_23
*637 FILLER_25_237
*638 FILLER_25_249
*639 FILLER_25_261
*640 FILLER_25_273
*641 FILLER_25_279
*642 FILLER_25_281
*643 FILLER_25_29
*644 FILLER_25_293
*645 FILLER_25_3
*646 FILLER_25_41
*647 FILLER_25_53
*648 FILLER_25_57
*649 FILLER_25_69
*650 FILLER_25_81
*651 FILLER_25_93
*652 FILLER_26_109
*653 FILLER_26_121
*654 FILLER_26_13
*655 FILLER_26_133
*656 FILLER_26_139
*657 FILLER_26_141
*658 FILLER_26_153
*659 FILLER_26_165
*660 FILLER_26_177
*661 FILLER_26_189
*662 FILLER_26_195
*663 FILLER_26_197
*664 FILLER_26_209
*665 FILLER_26_221
*666 FILLER_26_233
*667 FILLER_26_245
*668 FILLER_26_25
*669 FILLER_26_251
*670 FILLER_26_253
*671 FILLER_26_265
*672 FILLER_26_277
*673 FILLER_26_289
*674 FILLER_26_29
*675 FILLER_26_297
*676 FILLER_26_3
*677 FILLER_26_41
*678 FILLER_26_53
*679 FILLER_26_65
*680 FILLER_26_77
*681 FILLER_26_83
*682 FILLER_26_85
*683 FILLER_26_97
*684 FILLER_27_105
*685 FILLER_27_111
*686 FILLER_27_113
*687 FILLER_27_125
*688 FILLER_27_137
*689 FILLER_27_149
*690 FILLER_27_161
*691 FILLER_27_167
*692 FILLER_27_169
*693 FILLER_27_18
*694 FILLER_27_181
*695 FILLER_27_193
*696 FILLER_27_205
*697 FILLER_27_217
*698 FILLER_27_223
*699 FILLER_27_225
*700 FILLER_27_237
*701 FILLER_27_249
*702 FILLER_27_261
*703 FILLER_27_273
*704 FILLER_27_279
*705 FILLER_27_281
*706 FILLER_27_293
*707 FILLER_27_30
*708 FILLER_27_42
*709 FILLER_27_54
*710 FILLER_27_57
*711 FILLER_27_6
*712 FILLER_27_69
*713 FILLER_27_81
*714 FILLER_27_93
*715 FILLER_28_109
*716 FILLER_28_121
*717 FILLER_28_133
*718 FILLER_28_139
*719 FILLER_28_141
*720 FILLER_28_15
*721 FILLER_28_153
*722 FILLER_28_165
*723 FILLER_28_177
*724 FILLER_28_189
*725 FILLER_28_195
*726 FILLER_28_197
*727 FILLER_28_209
*728 FILLER_28_221
*729 FILLER_28_233
*730 FILLER_28_245
*731 FILLER_28_251
*732 FILLER_28_253
*733 FILLER_28_265
*734 FILLER_28_27
*735 FILLER_28_277
*736 FILLER_28_289
*737 FILLER_28_297
*738 FILLER_28_3
*739 FILLER_28_32
*740 FILLER_28_44
*741 FILLER_28_56
*742 FILLER_28_68
*743 FILLER_28_80
*744 FILLER_28_85
*745 FILLER_28_97
*746 FILLER_29_105
*747 FILLER_29_111
*748 FILLER_29_113
*749 FILLER_29_125
*750 FILLER_29_137
*751 FILLER_29_14
*752 FILLER_29_149
*753 FILLER_29_161
*754 FILLER_29_167
*755 FILLER_29_169
*756 FILLER_29_181
*757 FILLER_29_193
*758 FILLER_29_205
*759 FILLER_29_217
*760 FILLER_29_223
*761 FILLER_29_225
*762 FILLER_29_237
*763 FILLER_29_249
*764 FILLER_29_26
*765 FILLER_29_261
*766 FILLER_29_273
*767 FILLER_29_279
*768 FILLER_29_281
*769 FILLER_29_293
*770 FILLER_29_3
*771 FILLER_29_38
*772 FILLER_29_50
*773 FILLER_29_57
*774 FILLER_29_69
*775 FILLER_29_81
*776 FILLER_29_9
*777 FILLER_29_93
*778 FILLER_2_109
*779 FILLER_2_121
*780 FILLER_2_133
*781 FILLER_2_139
*782 FILLER_2_141
*783 FILLER_2_153
*784 FILLER_2_165
*785 FILLER_2_177
*786 FILLER_2_189
*787 FILLER_2_195
*788 FILLER_2_197
*789 FILLER_2_20
*790 FILLER_2_209
*791 FILLER_2_221
*792 FILLER_2_233
*793 FILLER_2_245
*794 FILLER_2_251
*795 FILLER_2_253
*796 FILLER_2_265
*797 FILLER_2_277
*798 FILLER_2_289
*799 FILLER_2_297
*800 FILLER_2_3
*801 FILLER_2_45
*802 FILLER_2_51
*803 FILLER_2_57
*804 FILLER_2_64
*805 FILLER_2_76
*806 FILLER_2_85
*807 FILLER_2_97
*808 FILLER_30_109
*809 FILLER_30_121
*810 FILLER_30_133
*811 FILLER_30_139
*812 FILLER_30_141
*813 FILLER_30_153
*814 FILLER_30_165
*815 FILLER_30_177
*816 FILLER_30_189
*817 FILLER_30_195
*818 FILLER_30_197
*819 FILLER_30_209
*820 FILLER_30_21
*821 FILLER_30_221
*822 FILLER_30_233
*823 FILLER_30_245
*824 FILLER_30_251
*825 FILLER_30_253
*826 FILLER_30_265
*827 FILLER_30_27
*828 FILLER_30_277
*829 FILLER_30_289
*830 FILLER_30_29
*831 FILLER_30_297
*832 FILLER_30_3
*833 FILLER_30_41
*834 FILLER_30_53
*835 FILLER_30_65
*836 FILLER_30_77
*837 FILLER_30_83
*838 FILLER_30_85
*839 FILLER_30_9
*840 FILLER_30_97
*841 FILLER_31_105
*842 FILLER_31_111
*843 FILLER_31_113
*844 FILLER_31_125
*845 FILLER_31_137
*846 FILLER_31_149
*847 FILLER_31_15
*848 FILLER_31_161
*849 FILLER_31_167
*850 FILLER_31_169
*851 FILLER_31_181
*852 FILLER_31_193
*853 FILLER_31_205
*854 FILLER_31_217
*855 FILLER_31_223
*856 FILLER_31_225
*857 FILLER_31_237
*858 FILLER_31_249
*859 FILLER_31_261
*860 FILLER_31_27
*861 FILLER_31_273
*862 FILLER_31_279
*863 FILLER_31_281
*864 FILLER_31_293
*865 FILLER_31_3
*866 FILLER_31_39
*867 FILLER_31_51
*868 FILLER_31_55
*869 FILLER_31_57
*870 FILLER_31_69
*871 FILLER_31_81
*872 FILLER_31_93
*873 FILLER_32_109
*874 FILLER_32_121
*875 FILLER_32_133
*876 FILLER_32_139
*877 FILLER_32_141
*878 FILLER_32_15
*879 FILLER_32_153
*880 FILLER_32_165
*881 FILLER_32_177
*882 FILLER_32_189
*883 FILLER_32_195
*884 FILLER_32_197
*885 FILLER_32_209
*886 FILLER_32_221
*887 FILLER_32_233
*888 FILLER_32_245
*889 FILLER_32_251
*890 FILLER_32_253
*891 FILLER_32_265
*892 FILLER_32_27
*893 FILLER_32_277
*894 FILLER_32_289
*895 FILLER_32_29
*896 FILLER_32_297
*897 FILLER_32_3
*898 FILLER_32_41
*899 FILLER_32_53
*900 FILLER_32_65
*901 FILLER_32_77
*902 FILLER_32_83
*903 FILLER_32_85
*904 FILLER_32_97
*905 FILLER_33_105
*906 FILLER_33_111
*907 FILLER_33_113
*908 FILLER_33_125
*909 FILLER_33_137
*910 FILLER_33_149
*911 FILLER_33_15
*912 FILLER_33_161
*913 FILLER_33_167
*914 FILLER_33_169
*915 FILLER_33_181
*916 FILLER_33_193
*917 FILLER_33_205
*918 FILLER_33_217
*919 FILLER_33_223
*920 FILLER_33_225
*921 FILLER_33_237
*922 FILLER_33_249
*923 FILLER_33_261
*924 FILLER_33_27
*925 FILLER_33_273
*926 FILLER_33_279
*927 FILLER_33_281
*928 FILLER_33_293
*929 FILLER_33_3
*930 FILLER_33_39
*931 FILLER_33_51
*932 FILLER_33_55
*933 FILLER_33_57
*934 FILLER_33_69
*935 FILLER_33_81
*936 FILLER_33_93
*937 FILLER_34_109
*938 FILLER_34_121
*939 FILLER_34_133
*940 FILLER_34_139
*941 FILLER_34_141
*942 FILLER_34_15
*943 FILLER_34_153
*944 FILLER_34_165
*945 FILLER_34_177
*946 FILLER_34_189
*947 FILLER_34_195
*948 FILLER_34_197
*949 FILLER_34_209
*950 FILLER_34_221
*951 FILLER_34_233
*952 FILLER_34_245
*953 FILLER_34_251
*954 FILLER_34_253
*955 FILLER_34_265
*956 FILLER_34_27
*957 FILLER_34_277
*958 FILLER_34_289
*959 FILLER_34_29
*960 FILLER_34_297
*961 FILLER_34_3
*962 FILLER_34_41
*963 FILLER_34_53
*964 FILLER_34_65
*965 FILLER_34_77
*966 FILLER_34_83
*967 FILLER_34_85
*968 FILLER_34_97
*969 FILLER_35_105
*970 FILLER_35_111
*971 FILLER_35_113
*972 FILLER_35_125
*973 FILLER_35_137
*974 FILLER_35_149
*975 FILLER_35_15
*976 FILLER_35_161
*977 FILLER_35_167
*978 FILLER_35_169
*979 FILLER_35_181
*980 FILLER_35_193
*981 FILLER_35_205
*982 FILLER_35_217
*983 FILLER_35_223
*984 FILLER_35_225
*985 FILLER_35_237
*986 FILLER_35_249
*987 FILLER_35_261
*988 FILLER_35_27
*989 FILLER_35_273
*990 FILLER_35_279
*991 FILLER_35_281
*992 FILLER_35_293
*993 FILLER_35_3
*994 FILLER_35_39
*995 FILLER_35_51
*996 FILLER_35_55
*997 FILLER_35_57
*998 FILLER_35_69
*999 FILLER_35_81
*1000 FILLER_35_93
*1001 FILLER_36_109
*1002 FILLER_36_121
*1003 FILLER_36_133
*1004 FILLER_36_139
*1005 FILLER_36_141
*1006 FILLER_36_15
*1007 FILLER_36_153
*1008 FILLER_36_165
*1009 FILLER_36_177
*1010 FILLER_36_189
*1011 FILLER_36_195
*1012 FILLER_36_197
*1013 FILLER_36_209
*1014 FILLER_36_221
*1015 FILLER_36_233
*1016 FILLER_36_245
*1017 FILLER_36_251
*1018 FILLER_36_253
*1019 FILLER_36_265
*1020 FILLER_36_27
*1021 FILLER_36_277
*1022 FILLER_36_289
*1023 FILLER_36_29
*1024 FILLER_36_297
*1025 FILLER_36_3
*1026 FILLER_36_41
*1027 FILLER_36_53
*1028 FILLER_36_65
*1029 FILLER_36_77
*1030 FILLER_36_83
*1031 FILLER_36_85
*1032 FILLER_36_97
*1033 FILLER_37_105
*1034 FILLER_37_111
*1035 FILLER_37_113
*1036 FILLER_37_125
*1037 FILLER_37_137
*1038 FILLER_37_149
*1039 FILLER_37_15
*1040 FILLER_37_161
*1041 FILLER_37_167
*1042 FILLER_37_169
*1043 FILLER_37_181
*1044 FILLER_37_193
*1045 FILLER_37_205
*1046 FILLER_37_217
*1047 FILLER_37_223
*1048 FILLER_37_225
*1049 FILLER_37_237
*1050 FILLER_37_249
*1051 FILLER_37_261
*1052 FILLER_37_27
*1053 FILLER_37_273
*1054 FILLER_37_279
*1055 FILLER_37_281
*1056 FILLER_37_293
*1057 FILLER_37_3
*1058 FILLER_37_39
*1059 FILLER_37_51
*1060 FILLER_37_55
*1061 FILLER_37_57
*1062 FILLER_37_69
*1063 FILLER_37_81
*1064 FILLER_37_93
*1065 FILLER_38_109
*1066 FILLER_38_121
*1067 FILLER_38_133
*1068 FILLER_38_139
*1069 FILLER_38_141
*1070 FILLER_38_153
*1071 FILLER_38_165
*1072 FILLER_38_177
*1073 FILLER_38_189
*1074 FILLER_38_195
*1075 FILLER_38_197
*1076 FILLER_38_209
*1077 FILLER_38_21
*1078 FILLER_38_221
*1079 FILLER_38_233
*1080 FILLER_38_245
*1081 FILLER_38_251
*1082 FILLER_38_253
*1083 FILLER_38_265
*1084 FILLER_38_27
*1085 FILLER_38_277
*1086 FILLER_38_289
*1087 FILLER_38_29
*1088 FILLER_38_297
*1089 FILLER_38_3
*1090 FILLER_38_41
*1091 FILLER_38_53
*1092 FILLER_38_65
*1093 FILLER_38_77
*1094 FILLER_38_83
*1095 FILLER_38_85
*1096 FILLER_38_9
*1097 FILLER_38_97
*1098 FILLER_39_105
*1099 FILLER_39_111
*1100 FILLER_39_113
*1101 FILLER_39_125
*1102 FILLER_39_137
*1103 FILLER_39_149
*1104 FILLER_39_15
*1105 FILLER_39_161
*1106 FILLER_39_167
*1107 FILLER_39_169
*1108 FILLER_39_181
*1109 FILLER_39_193
*1110 FILLER_39_20
*1111 FILLER_39_205
*1112 FILLER_39_217
*1113 FILLER_39_223
*1114 FILLER_39_225
*1115 FILLER_39_237
*1116 FILLER_39_249
*1117 FILLER_39_261
*1118 FILLER_39_273
*1119 FILLER_39_279
*1120 FILLER_39_281
*1121 FILLER_39_293
*1122 FILLER_39_3
*1123 FILLER_39_32
*1124 FILLER_39_40
*1125 FILLER_39_52
*1126 FILLER_39_57
*1127 FILLER_39_69
*1128 FILLER_39_81
*1129 FILLER_39_93
*1130 FILLER_3_111
*1131 FILLER_3_113
*1132 FILLER_3_125
*1133 FILLER_3_137
*1134 FILLER_3_149
*1135 FILLER_3_161
*1136 FILLER_3_167
*1137 FILLER_3_169
*1138 FILLER_3_18
*1139 FILLER_3_181
*1140 FILLER_3_193
*1141 FILLER_3_205
*1142 FILLER_3_217
*1143 FILLER_3_223
*1144 FILLER_3_225
*1145 FILLER_3_237
*1146 FILLER_3_249
*1147 FILLER_3_26
*1148 FILLER_3_261
*1149 FILLER_3_273
*1150 FILLER_3_279
*1151 FILLER_3_281
*1152 FILLER_3_293
*1153 FILLER_3_46
*1154 FILLER_3_54
*1155 FILLER_3_6
*1156 FILLER_3_63
*1157 FILLER_3_75
*1158 FILLER_3_87
*1159 FILLER_3_99
*1160 FILLER_40_10
*1161 FILLER_40_109
*1162 FILLER_40_121
*1163 FILLER_40_133
*1164 FILLER_40_139
*1165 FILLER_40_141
*1166 FILLER_40_153
*1167 FILLER_40_165
*1168 FILLER_40_177
*1169 FILLER_40_18
*1170 FILLER_40_189
*1171 FILLER_40_195
*1172 FILLER_40_197
*1173 FILLER_40_209
*1174 FILLER_40_22
*1175 FILLER_40_221
*1176 FILLER_40_233
*1177 FILLER_40_245
*1178 FILLER_40_251
*1179 FILLER_40_253
*1180 FILLER_40_265
*1181 FILLER_40_277
*1182 FILLER_40_289
*1183 FILLER_40_29
*1184 FILLER_40_297
*1185 FILLER_40_3
*1186 FILLER_40_41
*1187 FILLER_40_53
*1188 FILLER_40_65
*1189 FILLER_40_77
*1190 FILLER_40_83
*1191 FILLER_40_85
*1192 FILLER_40_97
*1193 FILLER_41_105
*1194 FILLER_41_111
*1195 FILLER_41_113
*1196 FILLER_41_125
*1197 FILLER_41_137
*1198 FILLER_41_149
*1199 FILLER_41_15
*1200 FILLER_41_161
*1201 FILLER_41_167
*1202 FILLER_41_169
*1203 FILLER_41_181
*1204 FILLER_41_193
*1205 FILLER_41_205
*1206 FILLER_41_217
*1207 FILLER_41_223
*1208 FILLER_41_225
*1209 FILLER_41_237
*1210 FILLER_41_249
*1211 FILLER_41_261
*1212 FILLER_41_27
*1213 FILLER_41_273
*1214 FILLER_41_279
*1215 FILLER_41_281
*1216 FILLER_41_293
*1217 FILLER_41_3
*1218 FILLER_41_39
*1219 FILLER_41_51
*1220 FILLER_41_55
*1221 FILLER_41_57
*1222 FILLER_41_69
*1223 FILLER_41_81
*1224 FILLER_41_93
*1225 FILLER_42_109
*1226 FILLER_42_121
*1227 FILLER_42_133
*1228 FILLER_42_139
*1229 FILLER_42_141
*1230 FILLER_42_15
*1231 FILLER_42_153
*1232 FILLER_42_165
*1233 FILLER_42_177
*1234 FILLER_42_189
*1235 FILLER_42_195
*1236 FILLER_42_197
*1237 FILLER_42_209
*1238 FILLER_42_221
*1239 FILLER_42_233
*1240 FILLER_42_245
*1241 FILLER_42_251
*1242 FILLER_42_253
*1243 FILLER_42_265
*1244 FILLER_42_27
*1245 FILLER_42_277
*1246 FILLER_42_289
*1247 FILLER_42_29
*1248 FILLER_42_297
*1249 FILLER_42_3
*1250 FILLER_42_41
*1251 FILLER_42_53
*1252 FILLER_42_65
*1253 FILLER_42_77
*1254 FILLER_42_83
*1255 FILLER_42_85
*1256 FILLER_42_97
*1257 FILLER_43_105
*1258 FILLER_43_111
*1259 FILLER_43_113
*1260 FILLER_43_125
*1261 FILLER_43_137
*1262 FILLER_43_149
*1263 FILLER_43_15
*1264 FILLER_43_161
*1265 FILLER_43_167
*1266 FILLER_43_169
*1267 FILLER_43_181
*1268 FILLER_43_193
*1269 FILLER_43_205
*1270 FILLER_43_217
*1271 FILLER_43_223
*1272 FILLER_43_225
*1273 FILLER_43_237
*1274 FILLER_43_249
*1275 FILLER_43_261
*1276 FILLER_43_27
*1277 FILLER_43_273
*1278 FILLER_43_279
*1279 FILLER_43_281
*1280 FILLER_43_293
*1281 FILLER_43_3
*1282 FILLER_43_39
*1283 FILLER_43_51
*1284 FILLER_43_55
*1285 FILLER_43_57
*1286 FILLER_43_69
*1287 FILLER_43_81
*1288 FILLER_43_93
*1289 FILLER_44_109
*1290 FILLER_44_121
*1291 FILLER_44_133
*1292 FILLER_44_139
*1293 FILLER_44_141
*1294 FILLER_44_15
*1295 FILLER_44_153
*1296 FILLER_44_165
*1297 FILLER_44_177
*1298 FILLER_44_189
*1299 FILLER_44_195
*1300 FILLER_44_197
*1301 FILLER_44_209
*1302 FILLER_44_221
*1303 FILLER_44_233
*1304 FILLER_44_245
*1305 FILLER_44_251
*1306 FILLER_44_253
*1307 FILLER_44_265
*1308 FILLER_44_27
*1309 FILLER_44_277
*1310 FILLER_44_289
*1311 FILLER_44_29
*1312 FILLER_44_297
*1313 FILLER_44_3
*1314 FILLER_44_41
*1315 FILLER_44_53
*1316 FILLER_44_65
*1317 FILLER_44_77
*1318 FILLER_44_83
*1319 FILLER_44_85
*1320 FILLER_44_97
*1321 FILLER_45_105
*1322 FILLER_45_111
*1323 FILLER_45_113
*1324 FILLER_45_125
*1325 FILLER_45_137
*1326 FILLER_45_149
*1327 FILLER_45_15
*1328 FILLER_45_161
*1329 FILLER_45_167
*1330 FILLER_45_169
*1331 FILLER_45_181
*1332 FILLER_45_193
*1333 FILLER_45_205
*1334 FILLER_45_217
*1335 FILLER_45_223
*1336 FILLER_45_225
*1337 FILLER_45_237
*1338 FILLER_45_249
*1339 FILLER_45_261
*1340 FILLER_45_27
*1341 FILLER_45_273
*1342 FILLER_45_279
*1343 FILLER_45_281
*1344 FILLER_45_293
*1345 FILLER_45_3
*1346 FILLER_45_39
*1347 FILLER_45_51
*1348 FILLER_45_55
*1349 FILLER_45_57
*1350 FILLER_45_69
*1351 FILLER_45_81
*1352 FILLER_45_93
*1353 FILLER_46_109
*1354 FILLER_46_121
*1355 FILLER_46_133
*1356 FILLER_46_139
*1357 FILLER_46_141
*1358 FILLER_46_15
*1359 FILLER_46_153
*1360 FILLER_46_165
*1361 FILLER_46_177
*1362 FILLER_46_189
*1363 FILLER_46_195
*1364 FILLER_46_197
*1365 FILLER_46_209
*1366 FILLER_46_221
*1367 FILLER_46_233
*1368 FILLER_46_245
*1369 FILLER_46_251
*1370 FILLER_46_253
*1371 FILLER_46_265
*1372 FILLER_46_27
*1373 FILLER_46_277
*1374 FILLER_46_289
*1375 FILLER_46_29
*1376 FILLER_46_297
*1377 FILLER_46_3
*1378 FILLER_46_41
*1379 FILLER_46_53
*1380 FILLER_46_65
*1381 FILLER_46_77
*1382 FILLER_46_83
*1383 FILLER_46_85
*1384 FILLER_46_97
*1385 FILLER_47_105
*1386 FILLER_47_111
*1387 FILLER_47_113
*1388 FILLER_47_125
*1389 FILLER_47_137
*1390 FILLER_47_149
*1391 FILLER_47_15
*1392 FILLER_47_161
*1393 FILLER_47_167
*1394 FILLER_47_169
*1395 FILLER_47_181
*1396 FILLER_47_193
*1397 FILLER_47_205
*1398 FILLER_47_217
*1399 FILLER_47_223
*1400 FILLER_47_225
*1401 FILLER_47_237
*1402 FILLER_47_249
*1403 FILLER_47_261
*1404 FILLER_47_27
*1405 FILLER_47_273
*1406 FILLER_47_279
*1407 FILLER_47_281
*1408 FILLER_47_293
*1409 FILLER_47_3
*1410 FILLER_47_39
*1411 FILLER_47_51
*1412 FILLER_47_55
*1413 FILLER_47_57
*1414 FILLER_47_69
*1415 FILLER_47_81
*1416 FILLER_47_93
*1417 FILLER_48_109
*1418 FILLER_48_121
*1419 FILLER_48_133
*1420 FILLER_48_139
*1421 FILLER_48_141
*1422 FILLER_48_15
*1423 FILLER_48_153
*1424 FILLER_48_165
*1425 FILLER_48_177
*1426 FILLER_48_189
*1427 FILLER_48_195
*1428 FILLER_48_197
*1429 FILLER_48_209
*1430 FILLER_48_221
*1431 FILLER_48_233
*1432 FILLER_48_245
*1433 FILLER_48_251
*1434 FILLER_48_253
*1435 FILLER_48_265
*1436 FILLER_48_27
*1437 FILLER_48_277
*1438 FILLER_48_289
*1439 FILLER_48_29
*1440 FILLER_48_297
*1441 FILLER_48_3
*1442 FILLER_48_41
*1443 FILLER_48_53
*1444 FILLER_48_65
*1445 FILLER_48_77
*1446 FILLER_48_83
*1447 FILLER_48_85
*1448 FILLER_48_97
*1449 FILLER_49_105
*1450 FILLER_49_111
*1451 FILLER_49_113
*1452 FILLER_49_125
*1453 FILLER_49_137
*1454 FILLER_49_149
*1455 FILLER_49_15
*1456 FILLER_49_161
*1457 FILLER_49_167
*1458 FILLER_49_169
*1459 FILLER_49_181
*1460 FILLER_49_193
*1461 FILLER_49_205
*1462 FILLER_49_217
*1463 FILLER_49_223
*1464 FILLER_49_225
*1465 FILLER_49_237
*1466 FILLER_49_249
*1467 FILLER_49_261
*1468 FILLER_49_27
*1469 FILLER_49_273
*1470 FILLER_49_279
*1471 FILLER_49_281
*1472 FILLER_49_293
*1473 FILLER_49_3
*1474 FILLER_49_35
*1475 FILLER_49_41
*1476 FILLER_49_53
*1477 FILLER_49_57
*1478 FILLER_49_69
*1479 FILLER_49_81
*1480 FILLER_49_93
*1481 FILLER_4_109
*1482 FILLER_4_121
*1483 FILLER_4_133
*1484 FILLER_4_139
*1485 FILLER_4_141
*1486 FILLER_4_153
*1487 FILLER_4_165
*1488 FILLER_4_177
*1489 FILLER_4_189
*1490 FILLER_4_195
*1491 FILLER_4_197
*1492 FILLER_4_209
*1493 FILLER_4_21
*1494 FILLER_4_221
*1495 FILLER_4_233
*1496 FILLER_4_245
*1497 FILLER_4_251
*1498 FILLER_4_253
*1499 FILLER_4_265
*1500 FILLER_4_27
*1501 FILLER_4_277
*1502 FILLER_4_289
*1503 FILLER_4_29
*1504 FILLER_4_297
*1505 FILLER_4_3
*1506 FILLER_4_53
*1507 FILLER_4_59
*1508 FILLER_4_66
*1509 FILLER_4_78
*1510 FILLER_4_85
*1511 FILLER_4_97
*1512 FILLER_50_109
*1513 FILLER_50_121
*1514 FILLER_50_133
*1515 FILLER_50_139
*1516 FILLER_50_141
*1517 FILLER_50_15
*1518 FILLER_50_153
*1519 FILLER_50_165
*1520 FILLER_50_177
*1521 FILLER_50_189
*1522 FILLER_50_195
*1523 FILLER_50_197
*1524 FILLER_50_209
*1525 FILLER_50_221
*1526 FILLER_50_233
*1527 FILLER_50_245
*1528 FILLER_50_251
*1529 FILLER_50_253
*1530 FILLER_50_265
*1531 FILLER_50_27
*1532 FILLER_50_277
*1533 FILLER_50_289
*1534 FILLER_50_29
*1535 FILLER_50_297
*1536 FILLER_50_3
*1537 FILLER_50_41
*1538 FILLER_50_53
*1539 FILLER_50_65
*1540 FILLER_50_77
*1541 FILLER_50_83
*1542 FILLER_50_85
*1543 FILLER_50_97
*1544 FILLER_51_105
*1545 FILLER_51_111
*1546 FILLER_51_113
*1547 FILLER_51_125
*1548 FILLER_51_137
*1549 FILLER_51_149
*1550 FILLER_51_15
*1551 FILLER_51_161
*1552 FILLER_51_167
*1553 FILLER_51_169
*1554 FILLER_51_181
*1555 FILLER_51_193
*1556 FILLER_51_205
*1557 FILLER_51_217
*1558 FILLER_51_223
*1559 FILLER_51_225
*1560 FILLER_51_237
*1561 FILLER_51_249
*1562 FILLER_51_261
*1563 FILLER_51_27
*1564 FILLER_51_273
*1565 FILLER_51_279
*1566 FILLER_51_281
*1567 FILLER_51_293
*1568 FILLER_51_3
*1569 FILLER_51_39
*1570 FILLER_51_51
*1571 FILLER_51_55
*1572 FILLER_51_57
*1573 FILLER_51_69
*1574 FILLER_51_81
*1575 FILLER_51_93
*1576 FILLER_52_109
*1577 FILLER_52_121
*1578 FILLER_52_133
*1579 FILLER_52_139
*1580 FILLER_52_141
*1581 FILLER_52_15
*1582 FILLER_52_153
*1583 FILLER_52_165
*1584 FILLER_52_177
*1585 FILLER_52_189
*1586 FILLER_52_195
*1587 FILLER_52_197
*1588 FILLER_52_209
*1589 FILLER_52_221
*1590 FILLER_52_233
*1591 FILLER_52_245
*1592 FILLER_52_251