*SPEF "ieee 1481-1999"
*DESIGN "user_module_skylersaleh"
*DATE "11:11:11 Fri 11 11, 1111"
*VENDOR "OpenRCX"
*PROGRAM "Parallel Extraction"
*VERSION "1.0"
*DESIGN_FLOW "NAME_SCOPE LOCAL" "PIN_CAP NONE"
*DIVIDER /
*DELIMITER :
*BUS_DELIMITER []
*T_UNIT 1 NS
*C_UNIT 1 PF
*R_UNIT 1 OHM
*L_UNIT 1 HENRY

*NAME_MAP
*1 io_in[0]
*2 io_in[1]
*3 io_in[2]
*4 io_in[3]
*5 io_in[4]
*6 io_in[5]
*7 io_in[6]
*8 io_in[7]
*9 io_out[0]
*10 io_out[1]
*11 io_out[2]
*12 io_out[3]
*13 io_out[4]
*14 io_out[5]
*15 io_out[6]
*16 io_out[7]
*19 _000_
*20 _001_
*21 _002_
*22 _003_
*23 _004_
*24 _005_
*25 _006_
*26 _007_
*27 _008_
*28 _009_
*29 _010_
*30 _011_
*31 _012_
*32 _013_
*33 _014_
*34 _015_
*35 _016_
*36 _017_
*37 _018_
*38 _019_
*39 _020_
*40 _021_
*41 _022_
*42 _023_
*43 _024_
*44 _025_
*45 _026_
*46 _027_
*47 _028_
*48 _029_
*49 _030_
*50 _031_
*51 _032_
*52 _033_
*53 _034_
*54 _035_
*55 _036_
*56 _037_
*57 _038_
*58 _039_
*59 _040_
*60 _041_
*61 _042_
*62 _043_
*63 _044_
*64 _045_
*65 _046_
*66 _047_
*67 _048_
*68 _049_
*69 _050_
*70 _051_
*71 _052_
*72 _053_
*73 _054_
*74 _055_
*75 _056_
*76 _057_
*77 _058_
*78 _059_
*79 _060_
*80 _061_
*81 _062_
*82 _063_
*83 _064_
*84 _065_
*85 _066_
*86 _067_
*87 _068_
*88 _069_
*89 _070_
*90 _071_
*91 _072_
*92 _073_
*93 _074_
*94 _075_
*95 _076_
*96 _077_
*97 _078_
*98 _079_
*99 _080_
*100 _081_
*101 _082_
*102 _083_
*103 _084_
*104 _085_
*105 clknet_0_io_in[0]
*106 clknet_1_0__leaf_io_in[0]
*107 clknet_1_1__leaf_io_in[0]
*108 hello_core\.clock_div\[0\]
*109 hello_core\.clock_div\[10\]
*110 hello_core\.clock_div\[11\]
*111 hello_core\.clock_div\[12\]
*112 hello_core\.clock_div\[13\]
*113 hello_core\.clock_div\[14\]
*114 hello_core\.clock_div\[15\]
*115 hello_core\.clock_div\[1\]
*116 hello_core\.clock_div\[2\]
*117 hello_core\.clock_div\[3\]
*118 hello_core\.clock_div\[4\]
*119 hello_core\.clock_div\[5\]
*120 hello_core\.clock_div\[6\]
*121 hello_core\.clock_div\[7\]
*122 hello_core\.clock_div\[8\]
*123 hello_core\.clock_div\[9\]
*124 hello_core\.decimal
*125 hello_core\.slow_clock
*126 hello_core\.state\[0\]
*127 hello_core\.state\[1\]
*128 hello_core\.state\[2\]
*129 net1
*130 net2
*131 net3
*132 net4
*133 net5
*134 net6
*135 net7
*136 FILLER_0_100
*137 FILLER_0_113
*138 FILLER_0_125
*139 FILLER_0_137
*140 FILLER_0_141
*141 FILLER_0_153
*142 FILLER_0_165
*143 FILLER_0_169
*144 FILLER_0_181
*145 FILLER_0_193
*146 FILLER_0_197
*147 FILLER_0_209
*148 FILLER_0_221
*149 FILLER_0_225
*150 FILLER_0_237
*151 FILLER_0_24
*152 FILLER_0_249
*153 FILLER_0_253
*154 FILLER_0_265
*155 FILLER_0_277
*156 FILLER_0_281
*157 FILLER_0_29
*158 FILLER_0_293
*159 FILLER_0_3
*160 FILLER_0_35
*161 FILLER_0_52
*162 FILLER_0_7
*163 FILLER_0_73
*164 FILLER_0_80
*165 FILLER_0_88
*166 FILLER_10_109
*167 FILLER_10_121
*168 FILLER_10_133
*169 FILLER_10_139
*170 FILLER_10_141
*171 FILLER_10_153
*172 FILLER_10_165
*173 FILLER_10_177
*174 FILLER_10_189
*175 FILLER_10_195
*176 FILLER_10_197
*177 FILLER_10_20
*178 FILLER_10_209
*179 FILLER_10_221
*180 FILLER_10_233
*181 FILLER_10_245
*182 FILLER_10_251
*183 FILLER_10_253
*184 FILLER_10_265
*185 FILLER_10_277
*186 FILLER_10_289
*187 FILLER_10_29
*188 FILLER_10_297
*189 FILLER_10_3
*190 FILLER_10_35
*191 FILLER_10_41
*192 FILLER_10_53
*193 FILLER_10_65
*194 FILLER_10_77
*195 FILLER_10_83
*196 FILLER_10_85
*197 FILLER_10_97
*198 FILLER_11_110
*199 FILLER_11_113
*200 FILLER_11_125
*201 FILLER_11_137
*202 FILLER_11_149
*203 FILLER_11_161
*204 FILLER_11_167
*205 FILLER_11_169
*206 FILLER_11_181
*207 FILLER_11_19
*208 FILLER_11_193
*209 FILLER_11_205
*210 FILLER_11_217
*211 FILLER_11_223
*212 FILLER_11_225
*213 FILLER_11_237
*214 FILLER_11_249
*215 FILLER_11_261
*216 FILLER_11_273
*217 FILLER_11_279
*218 FILLER_11_281
*219 FILLER_11_293
*220 FILLER_11_31
*221 FILLER_11_41
*222 FILLER_11_48
*223 FILLER_11_57
*224 FILLER_11_69
*225 FILLER_11_74
*226 FILLER_11_86
*227 FILLER_11_98
*228 FILLER_12_109
*229 FILLER_12_121
*230 FILLER_12_133
*231 FILLER_12_139
*232 FILLER_12_141
*233 FILLER_12_153
*234 FILLER_12_165
*235 FILLER_12_177
*236 FILLER_12_189
*237 FILLER_12_195
*238 FILLER_12_197
*239 FILLER_12_209
*240 FILLER_12_221
*241 FILLER_12_23
*242 FILLER_12_233
*243 FILLER_12_245
*244 FILLER_12_251
*245 FILLER_12_253
*246 FILLER_12_265
*247 FILLER_12_27
*248 FILLER_12_277
*249 FILLER_12_289
*250 FILLER_12_297
*251 FILLER_12_3
*252 FILLER_12_32
*253 FILLER_12_39
*254 FILLER_12_51
*255 FILLER_12_65
*256 FILLER_12_69
*257 FILLER_12_80
*258 FILLER_12_85
*259 FILLER_12_97
*260 FILLER_13_100
*261 FILLER_13_113
*262 FILLER_13_125
*263 FILLER_13_137
*264 FILLER_13_149
*265 FILLER_13_161
*266 FILLER_13_167
*267 FILLER_13_169
*268 FILLER_13_181
*269 FILLER_13_193
*270 FILLER_13_205
*271 FILLER_13_217
*272 FILLER_13_22
*273 FILLER_13_223
*274 FILLER_13_225
*275 FILLER_13_237
*276 FILLER_13_249
*277 FILLER_13_261
*278 FILLER_13_273
*279 FILLER_13_279
*280 FILLER_13_281
*281 FILLER_13_293
*282 FILLER_13_3
*283 FILLER_13_30
*284 FILLER_13_52
*285 FILLER_13_64
*286 FILLER_13_76
*287 FILLER_13_88
*288 FILLER_14_109
*289 FILLER_14_11
*290 FILLER_14_121
*291 FILLER_14_133
*292 FILLER_14_139
*293 FILLER_14_141
*294 FILLER_14_153
*295 FILLER_14_165
*296 FILLER_14_177
*297 FILLER_14_189
*298 FILLER_14_19
*299 FILLER_14_195
*300 FILLER_14_197
*301 FILLER_14_209
*302 FILLER_14_221
*303 FILLER_14_233
*304 FILLER_14_24
*305 FILLER_14_245
*306 FILLER_14_251
*307 FILLER_14_253
*308 FILLER_14_265
*309 FILLER_14_277
*310 FILLER_14_289
*311 FILLER_14_297
*312 FILLER_14_3
*313 FILLER_14_33
*314 FILLER_14_39
*315 FILLER_14_43
*316 FILLER_14_49
*317 FILLER_14_57
*318 FILLER_14_69
*319 FILLER_14_81
*320 FILLER_14_85
*321 FILLER_14_97
*322 FILLER_15_111
*323 FILLER_15_113
*324 FILLER_15_125
*325 FILLER_15_137
*326 FILLER_15_149
*327 FILLER_15_161
*328 FILLER_15_167
*329 FILLER_15_169
*330 FILLER_15_18
*331 FILLER_15_181
*332 FILLER_15_193
*333 FILLER_15_205
*334 FILLER_15_217
*335 FILLER_15_223
*336 FILLER_15_225
*337 FILLER_15_237
*338 FILLER_15_249
*339 FILLER_15_25
*340 FILLER_15_261
*341 FILLER_15_273
*342 FILLER_15_279
*343 FILLER_15_281
*344 FILLER_15_29
*345 FILLER_15_293
*346 FILLER_15_37
*347 FILLER_15_45
*348 FILLER_15_53
*349 FILLER_15_6
*350 FILLER_15_63
*351 FILLER_15_75
*352 FILLER_15_87
*353 FILLER_15_99
*354 FILLER_16_109
*355 FILLER_16_121
*356 FILLER_16_133
*357 FILLER_16_139
*358 FILLER_16_14
*359 FILLER_16_141
*360 FILLER_16_153
*361 FILLER_16_165
*362 FILLER_16_177
*363 FILLER_16_189
*364 FILLER_16_195
*365 FILLER_16_197
*366 FILLER_16_209
*367 FILLER_16_22
*368 FILLER_16_221
*369 FILLER_16_233
*370 FILLER_16_245
*371 FILLER_16_251
*372 FILLER_16_253
*373 FILLER_16_265
*374 FILLER_16_277
*375 FILLER_16_289
*376 FILLER_16_29
*377 FILLER_16_297
*378 FILLER_16_3
*379 FILLER_16_37
*380 FILLER_16_66
*381 FILLER_16_75
*382 FILLER_16_83
*383 FILLER_16_85
*384 FILLER_16_97
*385 FILLER_17_105
*386 FILLER_17_111
*387 FILLER_17_113
*388 FILLER_17_125
*389 FILLER_17_137
*390 FILLER_17_149
*391 FILLER_17_15
*392 FILLER_17_161
*393 FILLER_17_167
*394 FILLER_17_169
*395 FILLER_17_181
*396 FILLER_17_193
*397 FILLER_17_205
*398 FILLER_17_217
*399 FILLER_17_223
*400 FILLER_17_225
*401 FILLER_17_23
*402 FILLER_17_237
*403 FILLER_17_249
*404 FILLER_17_261
*405 FILLER_17_273
*406 FILLER_17_279
*407 FILLER_17_281
*408 FILLER_17_293
*409 FILLER_17_3
*410 FILLER_17_35
*411 FILLER_17_43
*412 FILLER_17_50
*413 FILLER_17_57
*414 FILLER_17_69
*415 FILLER_17_81
*416 FILLER_17_93
*417 FILLER_18_109
*418 FILLER_18_121
*419 FILLER_18_133
*420 FILLER_18_139
*421 FILLER_18_141
*422 FILLER_18_153
*423 FILLER_18_165
*424 FILLER_18_177
*425 FILLER_18_18
*426 FILLER_18_189
*427 FILLER_18_195
*428 FILLER_18_197
*429 FILLER_18_209
*430 FILLER_18_221
*431 FILLER_18_233
*432 FILLER_18_245
*433 FILLER_18_251
*434 FILLER_18_253
*435 FILLER_18_26
*436 FILLER_18_265
*437 FILLER_18_277
*438 FILLER_18_289
*439 FILLER_18_29
*440 FILLER_18_297
*441 FILLER_18_3
*442 FILLER_18_41
*443 FILLER_18_53
*444 FILLER_18_65
*445 FILLER_18_77
*446 FILLER_18_83
*447 FILLER_18_85
*448 FILLER_18_9
*449 FILLER_18_97
*450 FILLER_19_111
*451 FILLER_19_113
*452 FILLER_19_125
*453 FILLER_19_137
*454 FILLER_19_14
*455 FILLER_19_149
*456 FILLER_19_161
*457 FILLER_19_167
*458 FILLER_19_169
*459 FILLER_19_181
*460 FILLER_19_193
*461 FILLER_19_205
*462 FILLER_19_217
*463 FILLER_19_223
*464 FILLER_19_225
*465 FILLER_19_237
*466 FILLER_19_249
*467 FILLER_19_261
*468 FILLER_19_273
*469 FILLER_19_279
*470 FILLER_19_281
*471 FILLER_19_293
*472 FILLER_19_3
*473 FILLER_19_36
*474 FILLER_19_50
*475 FILLER_19_57
*476 FILLER_19_75
*477 FILLER_19_8
*478 FILLER_19_87
*479 FILLER_19_99
*480 FILLER_1_101
*481 FILLER_1_109
*482 FILLER_1_113
*483 FILLER_1_125
*484 FILLER_1_137
*485 FILLER_1_149
*486 FILLER_1_15
*487 FILLER_1_161
*488 FILLER_1_167
*489 FILLER_1_169
*490 FILLER_1_181
*491 FILLER_1_193
*492 FILLER_1_205
*493 FILLER_1_217
*494 FILLER_1_223
*495 FILLER_1_225
*496 FILLER_1_237
*497 FILLER_1_249
*498 FILLER_1_261
*499 FILLER_1_273
*500 FILLER_1_279
*501 FILLER_1_281
*502 FILLER_1_293
*503 FILLER_1_3
*504 FILLER_1_36
*505 FILLER_1_44
*506 FILLER_1_52
*507 FILLER_1_73
*508 FILLER_1_82
*509 FILLER_1_89
*510 FILLER_20_109
*511 FILLER_20_121
*512 FILLER_20_133
*513 FILLER_20_139
*514 FILLER_20_141
*515 FILLER_20_153
*516 FILLER_20_165
*517 FILLER_20_177
*518 FILLER_20_18
*519 FILLER_20_189
*520 FILLER_20_195
*521 FILLER_20_197
*522 FILLER_20_209
*523 FILLER_20_221
*524 FILLER_20_233
*525 FILLER_20_245
*526 FILLER_20_251
*527 FILLER_20_253
*528 FILLER_20_26
*529 FILLER_20_265
*530 FILLER_20_277
*531 FILLER_20_289
*532 FILLER_20_297
*533 FILLER_20_34
*534 FILLER_20_47
*535 FILLER_20_6
*536 FILLER_20_60
*537 FILLER_20_72
*538 FILLER_20_85
*539 FILLER_20_97
*540 FILLER_21_105
*541 FILLER_21_111
*542 FILLER_21_113
*543 FILLER_21_125
*544 FILLER_21_137
*545 FILLER_21_149
*546 FILLER_21_15
*547 FILLER_21_161
*548 FILLER_21_167
*549 FILLER_21_169
*550 FILLER_21_181
*551 FILLER_21_193
*552 FILLER_21_205
*553 FILLER_21_217
*554 FILLER_21_223
*555 FILLER_21_225
*556 FILLER_21_237
*557 FILLER_21_249
*558 FILLER_21_261
*559 FILLER_21_27
*560 FILLER_21_273
*561 FILLER_21_279
*562 FILLER_21_281
*563 FILLER_21_293
*564 FILLER_21_3
*565 FILLER_21_39
*566 FILLER_21_51
*567 FILLER_21_55
*568 FILLER_21_57
*569 FILLER_21_69
*570 FILLER_21_81
*571 FILLER_21_93
*572 FILLER_22_10
*573 FILLER_22_109
*574 FILLER_22_121
*575 FILLER_22_133
*576 FILLER_22_139
*577 FILLER_22_141
*578 FILLER_22_153
*579 FILLER_22_165
*580 FILLER_22_17
*581 FILLER_22_177
*582 FILLER_22_189
*583 FILLER_22_195
*584 FILLER_22_197
*585 FILLER_22_209
*586 FILLER_22_221
*587 FILLER_22_233
*588 FILLER_22_24
*589 FILLER_22_245
*590 FILLER_22_251
*591 FILLER_22_253
*592 FILLER_22_265
*593 FILLER_22_277
*594 FILLER_22_289
*595 FILLER_22_29
*596 FILLER_22_297
*597 FILLER_22_3
*598 FILLER_22_38
*599 FILLER_22_50
*600 FILLER_22_62
*601 FILLER_22_66
*602 FILLER_22_70
*603 FILLER_22_82
*604 FILLER_22_85
*605 FILLER_22_97
*606 FILLER_23_102
*607 FILLER_23_110
*608 FILLER_23_113
*609 FILLER_23_125
*610 FILLER_23_137
*611 FILLER_23_149
*612 FILLER_23_161
*613 FILLER_23_167
*614 FILLER_23_169
*615 FILLER_23_181
*616 FILLER_23_193
*617 FILLER_23_205
*618 FILLER_23_217
*619 FILLER_23_223
*620 FILLER_23_225
*621 FILLER_23_237
*622 FILLER_23_249
*623 FILLER_23_26
*624 FILLER_23_261
*625 FILLER_23_273
*626 FILLER_23_279
*627 FILLER_23_281
*628 FILLER_23_293
*629 FILLER_23_42
*630 FILLER_23_54
*631 FILLER_23_6
*632 FILLER_23_66
*633 FILLER_23_78
*634 FILLER_23_90
*635 FILLER_24_109
*636 FILLER_24_11
*637 FILLER_24_121
*638 FILLER_24_133
*639 FILLER_24_139
*640 FILLER_24_141
*641 FILLER_24_153
*642 FILLER_24_165
*643 FILLER_24_177
*644 FILLER_24_189
*645 FILLER_24_195
*646 FILLER_24_197
*647 FILLER_24_209
*648 FILLER_24_221
*649 FILLER_24_23
*650 FILLER_24_233
*651 FILLER_24_245
*652 FILLER_24_251
*653 FILLER_24_253
*654 FILLER_24_265
*655 FILLER_24_27
*656 FILLER_24_277
*657 FILLER_24_289
*658 FILLER_24_297
*659 FILLER_24_3
*660 FILLER_24_45
*661 FILLER_24_57
*662 FILLER_24_69
*663 FILLER_24_81
*664 FILLER_24_85
*665 FILLER_24_97
*666 FILLER_25_105
*667 FILLER_25_111
*668 FILLER_25_113
*669 FILLER_25_125
*670 FILLER_25_137
*671 FILLER_25_149
*672 FILLER_25_15
*673 FILLER_25_161
*674 FILLER_25_167
*675 FILLER_25_169
*676 FILLER_25_181
*677 FILLER_25_193
*678 FILLER_25_205
*679 FILLER_25_217
*680 FILLER_25_223
*681 FILLER_25_225
*682 FILLER_25_237
*683 FILLER_25_249
*684 FILLER_25_261
*685 FILLER_25_273
*686 FILLER_25_279
*687 FILLER_25_281
*688 FILLER_25_293
*689 FILLER_25_3
*690 FILLER_25_34
*691 FILLER_25_49
*692 FILLER_25_55
*693 FILLER_25_57
*694 FILLER_25_69
*695 FILLER_25_81
*696 FILLER_25_93
*697 FILLER_26_109
*698 FILLER_26_121
*699 FILLER_26_13
*700 FILLER_26_133
*701 FILLER_26_139
*702 FILLER_26_141
*703 FILLER_26_153
*704 FILLER_26_165
*705 FILLER_26_177
*706 FILLER_26_189
*707 FILLER_26_195
*708 FILLER_26_197
*709 FILLER_26_209
*710 FILLER_26_221
*711 FILLER_26_233
*712 FILLER_26_245
*713 FILLER_26_25
*714 FILLER_26_251
*715 FILLER_26_253
*716 FILLER_26_265
*717 FILLER_26_277
*718 FILLER_26_289
*719 FILLER_26_297
*720 FILLER_26_3
*721 FILLER_26_35
*722 FILLER_26_47
*723 FILLER_26_59
*724 FILLER_26_7
*725 FILLER_26_71
*726 FILLER_26_83
*727 FILLER_26_85
*728 FILLER_26_97
*729 FILLER_27_11
*730 FILLER_27_110
*731 FILLER_27_113
*732 FILLER_27_125
*733 FILLER_27_137
*734 FILLER_27_149
*735 FILLER_27_161
*736 FILLER_27_167
*737 FILLER_27_169
*738 FILLER_27_181
*739 FILLER_27_193
*740 FILLER_27_205
*741 FILLER_27_217
*742 FILLER_27_22
*743 FILLER_27_223
*744 FILLER_27_225
*745 FILLER_27_237
*746 FILLER_27_249
*747 FILLER_27_261
*748 FILLER_27_273
*749 FILLER_27_279
*750 FILLER_27_281
*751 FILLER_27_293
*752 FILLER_27_3
*753 FILLER_27_34
*754 FILLER_27_38
*755 FILLER_27_42
*756 FILLER_27_54
*757 FILLER_27_62
*758 FILLER_27_74
*759 FILLER_27_86
*760 FILLER_27_98
*761 FILLER_28_109
*762 FILLER_28_11
*763 FILLER_28_121
*764 FILLER_28_133
*765 FILLER_28_139
*766 FILLER_28_141
*767 FILLER_28_153
*768 FILLER_28_165
*769 FILLER_28_17
*770 FILLER_28_177
*771 FILLER_28_189
*772 FILLER_28_195
*773 FILLER_28_197
*774 FILLER_28_209
*775 FILLER_28_221
*776 FILLER_28_233
*777 FILLER_28_24
*778 FILLER_28_245
*779 FILLER_28_251
*780 FILLER_28_253
*781 FILLER_28_265
*782 FILLER_28_277
*783 FILLER_28_289
*784 FILLER_28_29
*785 FILLER_28_297
*786 FILLER_28_3
*787 FILLER_28_42
*788 FILLER_28_62
*789 FILLER_28_74
*790 FILLER_28_82
*791 FILLER_28_85
*792 FILLER_28_97
*793 FILLER_29_105
*794 FILLER_29_111
*795 FILLER_29_113
*796 FILLER_29_125
*797 FILLER_29_137
*798 FILLER_29_149
*799 FILLER_29_161
*800 FILLER_29_167
*801 FILLER_29_169
*802 FILLER_29_17
*803 FILLER_29_181
*804 FILLER_29_193
*805 FILLER_29_205
*806 FILLER_29_217
*807 FILLER_29_223
*808 FILLER_29_225
*809 FILLER_29_237
*810 FILLER_29_249
*811 FILLER_29_261
*812 FILLER_29_273
*813 FILLER_29_279
*814 FILLER_29_281
*815 FILLER_29_293
*816 FILLER_29_3
*817 FILLER_29_33
*818 FILLER_29_45
*819 FILLER_29_53
*820 FILLER_29_57
*821 FILLER_29_69
*822 FILLER_29_7
*823 FILLER_29_81
*824 FILLER_29_93
*825 FILLER_2_100
*826 FILLER_2_112
*827 FILLER_2_124
*828 FILLER_2_136
*829 FILLER_2_141
*830 FILLER_2_153
*831 FILLER_2_165
*832 FILLER_2_177
*833 FILLER_2_189
*834 FILLER_2_19
*835 FILLER_2_195
*836 FILLER_2_197
*837 FILLER_2_209
*838 FILLER_2_221
*839 FILLER_2_233
*840 FILLER_2_245
*841 FILLER_2_251
*842 FILLER_2_253
*843 FILLER_2_265
*844 FILLER_2_27
*845 FILLER_2_277
*846 FILLER_2_289
*847 FILLER_2_297
*848 FILLER_2_45
*849 FILLER_2_51
*850 FILLER_2_56
*851 FILLER_2_70
*852 FILLER_2_82
*853 FILLER_2_88
*854 FILLER_30_109
*855 FILLER_30_121
*856 FILLER_30_133
*857 FILLER_30_139
*858 FILLER_30_141
*859 FILLER_30_153
*860 FILLER_30_165
*861 FILLER_30_177
*862 FILLER_30_189
*863 FILLER_30_195
*864 FILLER_30_197
*865 FILLER_30_20
*866 FILLER_30_209
*867 FILLER_30_221
*868 FILLER_30_233
*869 FILLER_30_245
*870 FILLER_30_251
*871 FILLER_30_253
*872 FILLER_30_265
*873 FILLER_30_277
*874 FILLER_30_289
*875 FILLER_30_297
*876 FILLER_30_3
*877 FILLER_30_34
*878 FILLER_30_46
*879 FILLER_30_58
*880 FILLER_30_70
*881 FILLER_30_82
*882 FILLER_30_85
*883 FILLER_30_9
*884 FILLER_30_97
*885 FILLER_31_11
*886 FILLER_31_110
*887 FILLER_31_113
*888 FILLER_31_125
*889 FILLER_31_137
*890 FILLER_31_149
*891 FILLER_31_161
*892 FILLER_31_167
*893 FILLER_31_169
*894 FILLER_31_17
*895 FILLER_31_181
*896 FILLER_31_193
*897 FILLER_31_205
*898 FILLER_31_217
*899 FILLER_31_223
*900 FILLER_31_225
*901 FILLER_31_237
*902 FILLER_31_24
*903 FILLER_31_249
*904 FILLER_31_261
*905 FILLER_31_273
*906 FILLER_31_279
*907 FILLER_31_281
*908 FILLER_31_293
*909 FILLER_31_31
*910 FILLER_31_43
*911 FILLER_31_52
*912 FILLER_31_62
*913 FILLER_31_74
*914 FILLER_31_86
*915 FILLER_31_98
*916 FILLER_32_109
*917 FILLER_32_11
*918 FILLER_32_121
*919 FILLER_32_133
*920 FILLER_32_139
*921 FILLER_32_141
*922 FILLER_32_153
*923 FILLER_32_165
*924 FILLER_32_177
*925 FILLER_32_189
*926 FILLER_32_195
*927 FILLER_32_197
*928 FILLER_32_209
*929 FILLER_32_21
*930 FILLER_32_221
*931 FILLER_32_233
*932 FILLER_32_245
*933 FILLER_32_251
*934 FILLER_32_253
*935 FILLER_32_265
*936 FILLER_32_27
*937 FILLER_32_277
*938 FILLER_32_289
*939 FILLER_32_297
*940 FILLER_32_3
*941 FILLER_32_33
*942 FILLER_32_45
*943 FILLER_32_57
*944 FILLER_32_69
*945 FILLER_32_81
*946 FILLER_32_85
*947 FILLER_32_97
*948 FILLER_33_105
*949 FILLER_33_11
*950 FILLER_33_111
*951 FILLER_33_113
*952 FILLER_33_125
*953 FILLER_33_137
*954 FILLER_33_149
*955 FILLER_33_161
*956 FILLER_33_167
*957 FILLER_33_169
*958 FILLER_33_18
*959 FILLER_33_181
*960 FILLER_33_193
*961 FILLER_33_205
*962 FILLER_33_217
*963 FILLER_33_223
*964 FILLER_33_225
*965 FILLER_33_237
*966 FILLER_33_249
*967 FILLER_33_26
*968 FILLER_33_261
*969 FILLER_33_273
*970 FILLER_33_279
*971 FILLER_33_281
*972 FILLER_33_293
*973 FILLER_33_3
*974 FILLER_33_37
*975 FILLER_33_49
*976 FILLER_33_55
*977 FILLER_33_57
*978 FILLER_33_69
*979 FILLER_33_81
*980 FILLER_33_93
*981 FILLER_34_109
*982 FILLER_34_12
*983 FILLER_34_121
*984 FILLER_34_133
*985 FILLER_34_139
*986 FILLER_34_141
*987 FILLER_34_153
*988 FILLER_34_165
*989 FILLER_34_177
*990 FILLER_34_189
*991 FILLER_34_195
*992 FILLER_34_197
*993 FILLER_34_209
*994 FILLER_34_221
*995 FILLER_34_233
*996 FILLER_34_24
*997 FILLER_34_245
*998 FILLER_34_251
*999 FILLER_34_253
*1000 FILLER_34_265
*1001 FILLER_34_277
*1002 FILLER_34_289
*1003 FILLER_34_297
*1004 FILLER_34_3
*1005 FILLER_34_37
*1006 FILLER_34_49
*1007 FILLER_34_61
*1008 FILLER_34_73
*1009 FILLER_34_81
*1010 FILLER_34_85
*1011 FILLER_34_97
*1012 FILLER_35_105
*1013 FILLER_35_111
*1014 FILLER_35_113
*1015 FILLER_35_125
*1016 FILLER_35_137
*1017 FILLER_35_149
*1018 FILLER_35_161
*1019 FILLER_35_167
*1020 FILLER_35_169
*1021 FILLER_35_181
*1022 FILLER_35_193
*1023 FILLER_35_205
*1024 FILLER_35_21
*1025 FILLER_35_217
*1026 FILLER_35_223
*1027 FILLER_35_225
*1028 FILLER_35_237
*1029 FILLER_35_249
*1030 FILLER_35_261
*1031 FILLER_35_273
*1032 FILLER_35_279
*1033 FILLER_35_281
*1034 FILLER_35_293
*1035 FILLER_35_3
*1036 FILLER_35_33
*1037 FILLER_35_45
*1038 FILLER_35_53
*1039 FILLER_35_57
*1040 FILLER_35_69
*1041 FILLER_35_81
*1042 FILLER_35_9
*1043 FILLER_35_93
*1044 FILLER_36_109
*1045 FILLER_36_121
*1046 FILLER_36_133
*1047 FILLER_36_139
*1048 FILLER_36_141
*1049 FILLER_36_15
*1050 FILLER_36_153
*1051 FILLER_36_165
*1052 FILLER_36_177
*1053 FILLER_36_189
*1054 FILLER_36_195
*1055 FILLER_36_197
*1056 FILLER_36_209
*1057 FILLER_36_221
*1058 FILLER_36_233
*1059 FILLER_36_245
*1060 FILLER_36_251
*1061 FILLER_36_253
*1062 FILLER_36_265
*1063 FILLER_36_27
*1064 FILLER_36_277
*1065 FILLER_36_289
*1066 FILLER_36_29
*1067 FILLER_36_297
*1068 FILLER_36_3
*1069 FILLER_36_41
*1070 FILLER_36_53
*1071 FILLER_36_65
*1072 FILLER_36_77
*1073 FILLER_36_83
*1074 FILLER_36_85
*1075 FILLER_36_97
*1076 FILLER_37_105
*1077 FILLER_37_111
*1078 FILLER_37_113
*1079 FILLER_37_125
*1080 FILLER_37_137
*1081 FILLER_37_149
*1082 FILLER_37_15
*1083 FILLER_37_161
*1084 FILLER_37_167
*1085 FILLER_37_169
*1086 FILLER_37_181
*1087 FILLER_37_193
*1088 FILLER_37_205
*1089 FILLER_37_217
*1090 FILLER_37_223
*1091 FILLER_37_225
*1092 FILLER_37_237
*1093 FILLER_37_249
*1094 FILLER_37_261
*1095 FILLER_37_27
*1096 FILLER_37_273
*1097 FILLER_37_279
*1098 FILLER_37_281
*1099 FILLER_37_293
*1100 FILLER_37_3
*1101 FILLER_37_39
*1102 FILLER_37_51
*1103 FILLER_37_55
*1104 FILLER_37_57
*1105 FILLER_37_69
*1106 FILLER_37_81
*1107 FILLER_37_93
*1108 FILLER_38_10
*1109 FILLER_38_109
*1110 FILLER_38_121
*1111 FILLER_38_133
*1112 FILLER_38_139
*1113 FILLER_38_141
*1114 FILLER_38_153
*1115 FILLER_38_165
*1116 FILLER_38_177
*1117 FILLER_38_189
*1118 FILLER_38_195
*1119 FILLER_38_197
*1120 FILLER_38_209
*1121 FILLER_38_22
*1122 FILLER_38_221
*1123 FILLER_38_233
*1124 FILLER_38_245
*1125 FILLER_38_251
*1126 FILLER_38_253
*1127 FILLER_38_265
*1128 FILLER_38_277
*1129 FILLER_38_289
*1130 FILLER_38_29
*1131 FILLER_38_297
*1132 FILLER_38_41
*1133 FILLER_38_53
*1134 FILLER_38_65
*1135 FILLER_38_77
*1136 FILLER_38_83
*1137 FILLER_38_85
*1138 FILLER_38_97
*1139 FILLER_39_105
*1140 FILLER_39_111
*1141 FILLER_39_113
*1142 FILLER_39_125
*1143 FILLER_39_137
*1144 FILLER_39_149
*1145 FILLER_39_15
*1146 FILLER_39_161
*1147 FILLER_39_167
*1148 FILLER_39_169
*1149 FILLER_39_181
*1150 FILLER_39_193
*1151 FILLER_39_205
*1152 FILLER_39_217
*1153 FILLER_39_223
*1154 FILLER_39_225
*1155 FILLER_39_237
*1156 FILLER_39_249
*1157 FILLER_39_261
*1158 FILLER_39_27
*1159 FILLER_39_273
*1160 FILLER_39_279
*1161 FILLER_39_281
*1162 FILLER_39_293
*1163 FILLER_39_3
*1164 FILLER_39_39
*1165 FILLER_39_51
*1166 FILLER_39_55
*1167 FILLER_39_57
*1168 FILLER_39_69
*1169 FILLER_39_81
*1170 FILLER_39_93
*1171 FILLER_3_110
*1172 FILLER_3_113
*1173 FILLER_3_125
*1174 FILLER_3_137
*1175 FILLER_3_149
*1176 FILLER_3_15
*1177 FILLER_3_161
*1178 FILLER_3_167
*1179 FILLER_3_169
*1180 FILLER_3_181
*1181 FILLER_3_193
*1182 FILLER_3_205
*1183 FILLER_3_217
*1184 FILLER_3_223
*1185 FILLER_3_225
*1186 FILLER_3_237
*1187 FILLER_3_249
*1188 FILLER_3_261
*1189 FILLER_3_273
*1190 FILLER_3_279
*1191 FILLER_3_281
*1192 FILLER_3_293
*1193 FILLER_3_3
*1194 FILLER_3_33
*1195 FILLER_3_45
*1196 FILLER_3_53
*1197 FILLER_3_62
*1198 FILLER_3_74
*1199 FILLER_3_86
*1200 FILLER_3_98
*1201 FILLER_40_109
*1202 FILLER_40_121
*1203 FILLER_40_133
*1204 FILLER_40_139
*1205 FILLER_40_141
*1206 FILLER_40_15
*1207 FILLER_40_153
*1208 FILLER_40_165
*1209 FILLER_40_177
*1210 FILLER_40_189
*1211 FILLER_40_195
*1212 FILLER_40_197
*1213 FILLER_40_209
*1214 FILLER_40_221
*1215 FILLER_40_233
*1216 FILLER_40_245
*1217 FILLER_40_251
*1218 FILLER_40_253
*1219 FILLER_40_265
*1220 FILLER_40_27
*1221 FILLER_40_277
*1222 FILLER_40_289
*1223 FILLER_40_29
*1224 FILLER_40_297
*1225 FILLER_40_3
*1226 FILLER_40_41
*1227 FILLER_40_53
*1228 FILLER_40_65
*1229 FILLER_40_77
*1230 FILLER_40_83
*1231 FILLER_40_85
*1232 FILLER_40_97
*1233 FILLER_41_105
*1234 FILLER_41_111
*1235 FILLER_41_113
*1236 FILLER_41_125
*1237 FILLER_41_137
*1238 FILLER_41_149
*1239 FILLER_41_15
*1240 FILLER_41_161
*1241 FILLER_41_167
*1242 FILLER_41_169
*1243 FILLER_41_181
*1244 FILLER_41_193
*1245 FILLER_41_205
*1246 FILLER_41_217
*1247 FILLER_41_223
*1248 FILLER_41_225
*1249 FILLER_41_237
*1250 FILLER_41_249
*1251 FILLER_41_261
*1252 FILLER_41_27
*1253 FILLER_41_273
*1254 FILLER_41_279
*1255 FILLER_41_281
*1256 FILLER_41_293
*1257 FILLER_41_3
*1258 FILLER_41_39
*1259 FILLER_41_51
*1260 FILLER_41_55
*1261 FILLER_41_57
*1262 FILLER_41_69
*1263 FILLER_41_81
*1264 FILLER_41_93
*1265 FILLER_42_109
*1266 FILLER_42_121
*1267 FILLER_42_133
*1268 FILLER_42_139
*1269 FILLER_42_141
*1270 FILLER_42_15
*1271 FILLER_42_153
*1272 FILLER_42_165
*1273 FILLER_42_177
*1274 FILLER_42_189
*1275 FILLER_42_195
*1276 FILLER_42_197
*1277 FILLER_42_209
*1278 FILLER_42_221
*1279 FILLER_42_233
*1280 FILLER_42_245
*1281 FILLER_42_251
*1282 FILLER_42_253
*1283 FILLER_42_265
*1284 FILLER_42_27
*1285 FILLER_42_277
*1286 FILLER_42_289
*1287 FILLER_42_29
*1288 FILLER_42_297
*1289 FILLER_42_3
*1290 FILLER_42_41
*1291 FILLER_42_53
*1292 FILLER_42_65
*1293 FILLER_42_77
*1294 FILLER_42_83
*1295 FILLER_42_85
*1296 FILLER_42_97
*1297 FILLER_43_105
*1298 FILLER_43_111
*1299 FILLER_43_113
*1300 FILLER_43_125
*1301 FILLER_43_137
*1302 FILLER_43_149
*1303 FILLER_43_15
*1304 FILLER_43_161
*1305 FILLER_43_167
*1306 FILLER_43_169
*1307 FILLER_43_181
*1308 FILLER_43_193
*1309 FILLER_43_205
*1310 FILLER_43_217
*1311 FILLER_43_223
*1312 FILLER_43_225
*1313 FILLER_43_237
*1314 FILLER_43_249
*1315 FILLER_43_261
*1316 FILLER_43_27
*1317 FILLER_43_273
*1318 FILLER_43_279
*1319 FILLER_43_281
*1320 FILLER_43_293
*1321 FILLER_43_3
*1322 FILLER_43_39
*1323 FILLER_43_51
*1324 FILLER_43_55
*1325 FILLER_43_57
*1326 FILLER_43_69
*1327 FILLER_43_81
*1328 FILLER_43_93
*1329 FILLER_44_109
*1330 FILLER_44_121
*1331 FILLER_44_133
*1332 FILLER_44_139
*1333 FILLER_44_141
*1334 FILLER_44_15
*1335 FILLER_44_153
*1336 FILLER_44_165
*1337 FILLER_44_177
*1338 FILLER_44_189
*1339 FILLER_44_195
*1340 FILLER_44_197
*1341 FILLER_44_209
*1342 FILLER_44_221
*1343 FILLER_44_233
*1344 FILLER_44_245
*1345 FILLER_44_251
*1346 FILLER_44_253
*1347 FILLER_44_265
*1348 FILLER_44_27
*1349 FILLER_44_277
*1350 FILLER_44_289
*1351 FILLER_44_29
*1352 FILLER_44_297
*1353 FILLER_44_3
*1354 FILLER_44_41
*1355 FILLER_44_53
*1356 FILLER_44_65
*1357 FILLER_44_77
*1358 FILLER_44_83
*1359 FILLER_44_85
*1360 FILLER_44_97
*1361 FILLER_45_105
*1362 FILLER_45_111
*1363 FILLER_45_113
*1364 FILLER_45_125
*1365 FILLER_45_137
*1366 FILLER_45_149
*1367 FILLER_45_15
*1368 FILLER_45_161
*1369 FILLER_45_167
*1370 FILLER_45_169
*1371 FILLER_45_181
*1372 FILLER_45_193
*1373 FILLER_45_205
*1374 FILLER_45_217
*1375 FILLER_45_223
*1376 FILLER_45_225
*1377 FILLER_45_237
*1378 FILLER_45_249
*1379 FILLER_45_261
*1380 FILLER_45_27
*1381 FILLER_45_273
*1382 FILLER_45_279
*1383 FILLER_45_281
*1384 FILLER_45_293
*1385 FILLER_45_3
*1386 FILLER_45_39
*1387 FILLER_45_51
*1388 FILLER_45_55
*1389 FILLER_45_57
*1390 FILLER_45_69
*1391 FILLER_45_81
*1392 FILLER_45_93
*1393 FILLER_46_109
*1394 FILLER_46_121
*1395 FILLER_46_133
*1396 FILLER_46_139
*1397 FILLER_46_141
*1398 FILLER_46_15
*1399 FILLER_46_153
*1400 FILLER_46_165
*1401 FILLER_46_177
*1402 FILLER_46_189
*1403 FILLER_46_195
*1404 FILLER_46_197
*1405 FILLER_46_209
*1406 FILLER_46_221
*1407 FILLER_46_233
*1408 FILLER_46_245
*1409 FILLER_46_251
*1410 FILLER_46_253
*1411 FILLER_46_265
*1412 FILLER_46_27
*1413 FILLER_46_277
*1414 FILLER_46_289
*1415 FILLER_46_29
*1416 FILLER_46_297
*1417 FILLER_46_3
*1418 FILLER_46_41
*1419 FILLER_46_53
*1420 FILLER_46_65
*1421 FILLER_46_77
*1422 FILLER_46_83
*1423 FILLER_46_85
*1424 FILLER_46_97
*1425 FILLER_47_105
*1426 FILLER_47_111
*1427 FILLER_47_113
*1428 FILLER_47_125
*1429 FILLER_47_137
*1430 FILLER_47_149
*1431 FILLER_47_15
*1432 FILLER_47_161
*1433 FILLER_47_167
*1434 FILLER_47_169
*1435 FILLER_47_181
*1436 FILLER_47_193
*1437 FILLER_47_205
*1438 FILLER_47_217
*1439 FILLER_47_223
*1440 FILLER_47_225
*1441 FILLER_47_237
*1442 FILLER_47_249
*1443 FILLER_47_261
*1444 FILLER_47_27
*1445 FILLER_47_273
*1446 FILLER_47_279
*1447 FILLER_47_281
*1448 FILLER_47_293
*1449 FILLER_47_3
*1450 FILLER_47_39
*1451 FILLER_47_51
*1452 FILLER_47_55
*1453 FILLER_47_57
*1454 FILLER_47_69
*1455 FILLER_47_81
*1456 FILLER_47_93
*1457 FILLER_48_109
*1458 FILLER_48_121
*1459 FILLER_48_133
*1460 FILLER_48_139
*1461 FILLER_48_141
*1462 FILLER_48_15
*1463 FILLER_48_153
*1464 FILLER_48_165
*1465 FILLER_48_177
*1466 FILLER_48_189
*1467 FILLER_48_195
*1468 FILLER_48_197
*1469 FILLER_48_209
*1470 FILLER_48_221
*1471 FILLER_48_233
*1472 FILLER_48_245
*1473 FILLER_48_251
*1474 FILLER_48_253
*1475 FILLER_48_265
*1476 FILLER_48_27
*1477 FILLER_48_277
*1478 FILLER_48_289
*1479 FILLER_48_29
*1480 FILLER_48_297
*1481 FILLER_48_3
*1482 FILLER_48_41
*1483 FILLER_48_53
*1484 FILLER_48_65
*1485 FILLER_48_77
*1486 FILLER_48_83
*1487 FILLER_48_85
*1488 FILLER_48_97
*1489 FILLER_49_105
*1490 FILLER_49_111
*1491 FILLER_49_113
*1492 FILLER_49_125
*1493 FILLER_49_137
*1494 FILLER_49_149
*1495 FILLER_49_15
*1496 FILLER_49_161
*1497 FILLER_49_167
*1498 FILLER_49_169
*1499 FILLER_49_181
*1500 FILLER_49_193
*1501 FILLER_49_205
*1502 FILLER_49_217
*1503 FILLER_49_223
*1504 FILLER_49_225
*1505 FILLER_49_237
*1506 FILLER_49_249
*1507 FILLER_49_261
*1508 FILLER_49_27
*1509 FILLER_49_273
*1510 FILLER_49_279
*1511 FILLER_49_281
*1512 FILLER_49_293
*1513 FILLER_49_3
*1514 FILLER_49_39
*1515 FILLER_49_51
*1516 FILLER_49_55
*1517 FILLER_49_57
*1518 FILLER_49_69
*1519 FILLER_49_81
*1520 FILLER_49_93
*1521 FILLER_4_109
*1522 FILLER_4_121
*1523 FILLER_4_133
*1524 FILLER_4_139
*1525 FILLER_4_141
*1526 FILLER_4_153
*1527 FILLER_4_165
*1528 FILLER_4_177
*1529 FILLER_4_189
*1530 FILLER_4_195
*1531 FILLER_4_197
*1532 FILLER_4_209
*1533 FILLER_4_221
*1534 FILLER_4_233
*1535 FILLER_4_24
*1536 FILLER_4_245
*1537 FILLER_4_251
*1538 FILLER_4_253
*1539 FILLER_4_265
*1540 FILLER_4_277
*1541 FILLER_4_289
*1542 FILLER_4_297
*1543 FILLER_4_3
*1544 FILLER_4_45
*1545 FILLER_4_55
*1546 FILLER_4_59
*1547 FILLER_4_67
*1548 FILLER_4_7
*1549 FILLER_4_79
*1550 FILLER_4_83
*1551 FILLER_4_85
*1552 FILLER_4_97
*1553 FILLER_50_109
*1554 FILLER_50_121
*1555 FILLER_50_133
*1556 FILLER_50_139
*1557 FILLER_50_141
*1558 FILLER_50_15
*1559 FILLER_50_153
*1560 FILLER_50_165
*1561 FILLER_50_177
*1562 FILLER_50_189
*1563 FILLER_50_195
*1564 FILLER_50_197
*1565 FILLER_50_209
*1566 FILLER_50_221
*1567 FILLER_50_233
*1568 FILLER_50_245
*1569 FILLER_50_251
*1570 FILLER_50_253
*1571 FILLER_50_265
*1572 FILLER_50_27
*1573 FILLER_50_277
*1574 FILLER_50_289
*1575 FILLER_50_29
*1576 FILLER_50_297
*1577 FILLER_50_3
*1578 FILLER_50_41
*1579 FILLER_50_53
*1580 FILLER_50_65
*1581 FILLER_50_77
*1582 FILLER_50_83
*1583 FILLER_50_85
*1584 FILLER_50_97
*1585 FILLER_51_105
*1586 FILLER_51_111
*1587 FILLER_51_113
*1588 FILLER_51_125
*1589 FILLER_51_137
*1590 FILLER_51_149
*1591 FILLER_51_15
*1592 FILLER_51_161
*1593 FILLER_51_167
*1594 FILLER_51_169
*1595 FILLER_51_181
*1596 FILLER_51_193
*1597 FILLER_51_205
*1598 FILLER_51_217
*1599 FILLER_51_223
*1600 FILLER_51_225
*1601 FILLER_51_237
*1602 FILLER_51_249