*SPEF "ieee 1481-1999"
*DESIGN "user_module_347417602591556180"
*DATE "11:11:11 Fri 11 11, 1111"
*VENDOR "OpenRCX"
*PROGRAM "Parallel Extraction"
*VERSION "1.0"
*DESIGN_FLOW "NAME_SCOPE LOCAL" "PIN_CAP NONE"
*DIVIDER /
*DELIMITER :
*BUS_DELIMITER []
*T_UNIT 1 NS
*C_UNIT 1 PF
*R_UNIT 1 OHM
*L_UNIT 1 HENRY

*NAME_MAP
*1 io_in[0]
*2 io_in[1]
*3 io_in[2]
*4 io_in[3]
*5 io_in[4]
*6 io_in[5]
*7 io_in[6]
*8 io_in[7]
*9 net6
*10 io_out[1]
*11 io_out[2]
*12 io_out[3]
*13 io_out[4]
*14 io_out[5]
*15 net7
*16 net8
*19 _00_
*20 _01_
*21 _02_
*22 _03_
*23 _04_
*24 _05_
*25 _06_
*26 _07_
*27 clknet_0_io_in[0]
*28 clknet_1_0__leaf_io_in[0]
*29 clknet_1_1__leaf_io_in[0]
*30 flipflop1\.d
*31 flipflop1\.q
*32 flipflop2\.d
*33 flipflop2\.q
*34 flipflop4\.q
*35 flipflop5\.q
*36 flipflop6\.q
*37 gate1\.out
*38 net1
*39 net2
*40 net3
*41 net4
*42 net5
*43 FILLER_0_109
*44 FILLER_0_113
*45 FILLER_0_125
*46 FILLER_0_137
*47 FILLER_0_141
*48 FILLER_0_15
*49 FILLER_0_153
*50 FILLER_0_165
*51 FILLER_0_169
*52 FILLER_0_181
*53 FILLER_0_193
*54 FILLER_0_197
*55 FILLER_0_209
*56 FILLER_0_221
*57 FILLER_0_225
*58 FILLER_0_237
*59 FILLER_0_249
*60 FILLER_0_253
*61 FILLER_0_265
*62 FILLER_0_27
*63 FILLER_0_277
*64 FILLER_0_281
*65 FILLER_0_29
*66 FILLER_0_293
*67 FILLER_0_3
*68 FILLER_0_41
*69 FILLER_0_53
*70 FILLER_0_57
*71 FILLER_0_69
*72 FILLER_0_81
*73 FILLER_0_85
*74 FILLER_0_97
*75 FILLER_10_109
*76 FILLER_10_121
*77 FILLER_10_133
*78 FILLER_10_139
*79 FILLER_10_141
*80 FILLER_10_15
*81 FILLER_10_153
*82 FILLER_10_165
*83 FILLER_10_177
*84 FILLER_10_189
*85 FILLER_10_195
*86 FILLER_10_197
*87 FILLER_10_209
*88 FILLER_10_221
*89 FILLER_10_233
*90 FILLER_10_245
*91 FILLER_10_251
*92 FILLER_10_253
*93 FILLER_10_265
*94 FILLER_10_27
*95 FILLER_10_277
*96 FILLER_10_289
*97 FILLER_10_29
*98 FILLER_10_297
*99 FILLER_10_3
*100 FILLER_10_41
*101 FILLER_10_53
*102 FILLER_10_65
*103 FILLER_10_77
*104 FILLER_10_83
*105 FILLER_10_85
*106 FILLER_10_97
*107 FILLER_11_105
*108 FILLER_11_111
*109 FILLER_11_113
*110 FILLER_11_125
*111 FILLER_11_137
*112 FILLER_11_149
*113 FILLER_11_161
*114 FILLER_11_167
*115 FILLER_11_169
*116 FILLER_11_18
*117 FILLER_11_181
*118 FILLER_11_193
*119 FILLER_11_205
*120 FILLER_11_217
*121 FILLER_11_223
*122 FILLER_11_225
*123 FILLER_11_237
*124 FILLER_11_249
*125 FILLER_11_261
*126 FILLER_11_273
*127 FILLER_11_279
*128 FILLER_11_281
*129 FILLER_11_293
*130 FILLER_11_30
*131 FILLER_11_42
*132 FILLER_11_54
*133 FILLER_11_57
*134 FILLER_11_6
*135 FILLER_11_69
*136 FILLER_11_81
*137 FILLER_11_93
*138 FILLER_12_109
*139 FILLER_12_121
*140 FILLER_12_133
*141 FILLER_12_139
*142 FILLER_12_141
*143 FILLER_12_153
*144 FILLER_12_165
*145 FILLER_12_177
*146 FILLER_12_189
*147 FILLER_12_195
*148 FILLER_12_197
*149 FILLER_12_209
*150 FILLER_12_221
*151 FILLER_12_233
*152 FILLER_12_24
*153 FILLER_12_245
*154 FILLER_12_251
*155 FILLER_12_253
*156 FILLER_12_265
*157 FILLER_12_277
*158 FILLER_12_289
*159 FILLER_12_29
*160 FILLER_12_297
*161 FILLER_12_3
*162 FILLER_12_41
*163 FILLER_12_53
*164 FILLER_12_65
*165 FILLER_12_77
*166 FILLER_12_83
*167 FILLER_12_85
*168 FILLER_12_97
*169 FILLER_13_105
*170 FILLER_13_111
*171 FILLER_13_113
*172 FILLER_13_125
*173 FILLER_13_137
*174 FILLER_13_149
*175 FILLER_13_15
*176 FILLER_13_161
*177 FILLER_13_167
*178 FILLER_13_169
*179 FILLER_13_181
*180 FILLER_13_193
*181 FILLER_13_205
*182 FILLER_13_217
*183 FILLER_13_223
*184 FILLER_13_225
*185 FILLER_13_237
*186 FILLER_13_249
*187 FILLER_13_261
*188 FILLER_13_27
*189 FILLER_13_273
*190 FILLER_13_279
*191 FILLER_13_281
*192 FILLER_13_293
*193 FILLER_13_3
*194 FILLER_13_39
*195 FILLER_13_51
*196 FILLER_13_55
*197 FILLER_13_57
*198 FILLER_13_69
*199 FILLER_13_81
*200 FILLER_13_93
*201 FILLER_14_109
*202 FILLER_14_121
*203 FILLER_14_133
*204 FILLER_14_139
*205 FILLER_14_141
*206 FILLER_14_15
*207 FILLER_14_153
*208 FILLER_14_165
*209 FILLER_14_177
*210 FILLER_14_189
*211 FILLER_14_195
*212 FILLER_14_197
*213 FILLER_14_209
*214 FILLER_14_221
*215 FILLER_14_233
*216 FILLER_14_245
*217 FILLER_14_251
*218 FILLER_14_253
*219 FILLER_14_265
*220 FILLER_14_27
*221 FILLER_14_277
*222 FILLER_14_289
*223 FILLER_14_29
*224 FILLER_14_297
*225 FILLER_14_3
*226 FILLER_14_41
*227 FILLER_14_53
*228 FILLER_14_65
*229 FILLER_14_77
*230 FILLER_14_83
*231 FILLER_14_85
*232 FILLER_14_97
*233 FILLER_15_105
*234 FILLER_15_111
*235 FILLER_15_113
*236 FILLER_15_125
*237 FILLER_15_137
*238 FILLER_15_149
*239 FILLER_15_161
*240 FILLER_15_167
*241 FILLER_15_169
*242 FILLER_15_18
*243 FILLER_15_181
*244 FILLER_15_193
*245 FILLER_15_205
*246 FILLER_15_217
*247 FILLER_15_223
*248 FILLER_15_225
*249 FILLER_15_237
*250 FILLER_15_249
*251 FILLER_15_261
*252 FILLER_15_273
*253 FILLER_15_279
*254 FILLER_15_281
*255 FILLER_15_293
*256 FILLER_15_30
*257 FILLER_15_42
*258 FILLER_15_54
*259 FILLER_15_57
*260 FILLER_15_6
*261 FILLER_15_69
*262 FILLER_15_81
*263 FILLER_15_93
*264 FILLER_16_10
*265 FILLER_16_109
*266 FILLER_16_121
*267 FILLER_16_133
*268 FILLER_16_139
*269 FILLER_16_141
*270 FILLER_16_153
*271 FILLER_16_165
*272 FILLER_16_177
*273 FILLER_16_189
*274 FILLER_16_195
*275 FILLER_16_197
*276 FILLER_16_209
*277 FILLER_16_22
*278 FILLER_16_221
*279 FILLER_16_233
*280 FILLER_16_245
*281 FILLER_16_251
*282 FILLER_16_253
*283 FILLER_16_265
*284 FILLER_16_277
*285 FILLER_16_289
*286 FILLER_16_29
*287 FILLER_16_297
*288 FILLER_16_41
*289 FILLER_16_53
*290 FILLER_16_65
*291 FILLER_16_77
*292 FILLER_16_83
*293 FILLER_16_85
*294 FILLER_16_97
*295 FILLER_17_105
*296 FILLER_17_111
*297 FILLER_17_113
*298 FILLER_17_125
*299 FILLER_17_137
*300 FILLER_17_149
*301 FILLER_17_161
*302 FILLER_17_167
*303 FILLER_17_169
*304 FILLER_17_181
*305 FILLER_17_19
*306 FILLER_17_193
*307 FILLER_17_205
*308 FILLER_17_217
*309 FILLER_17_223
*310 FILLER_17_225
*311 FILLER_17_237
*312 FILLER_17_249
*313 FILLER_17_261
*314 FILLER_17_273
*315 FILLER_17_279
*316 FILLER_17_281
*317 FILLER_17_293
*318 FILLER_17_31
*319 FILLER_17_43
*320 FILLER_17_55
*321 FILLER_17_57
*322 FILLER_17_69
*323 FILLER_17_81
*324 FILLER_17_93
*325 FILLER_18_109
*326 FILLER_18_121
*327 FILLER_18_133
*328 FILLER_18_139
*329 FILLER_18_141
*330 FILLER_18_153
*331 FILLER_18_165
*332 FILLER_18_177
*333 FILLER_18_189
*334 FILLER_18_19
*335 FILLER_18_195
*336 FILLER_18_197
*337 FILLER_18_209
*338 FILLER_18_221
*339 FILLER_18_233
*340 FILLER_18_245
*341 FILLER_18_251
*342 FILLER_18_253
*343 FILLER_18_265
*344 FILLER_18_27
*345 FILLER_18_277
*346 FILLER_18_289
*347 FILLER_18_29
*348 FILLER_18_297
*349 FILLER_18_41
*350 FILLER_18_53
*351 FILLER_18_65
*352 FILLER_18_77
*353 FILLER_18_83
*354 FILLER_18_85
*355 FILLER_18_97
*356 FILLER_19_105
*357 FILLER_19_111
*358 FILLER_19_113
*359 FILLER_19_125
*360 FILLER_19_137
*361 FILLER_19_149
*362 FILLER_19_15
*363 FILLER_19_161
*364 FILLER_19_167
*365 FILLER_19_169
*366 FILLER_19_181
*367 FILLER_19_193
*368 FILLER_19_205
*369 FILLER_19_217
*370 FILLER_19_223
*371 FILLER_19_225
*372 FILLER_19_237
*373 FILLER_19_249
*374 FILLER_19_261
*375 FILLER_19_273
*376 FILLER_19_279
*377 FILLER_19_281
*378 FILLER_19_293
*379 FILLER_19_3
*380 FILLER_19_35
*381 FILLER_19_47
*382 FILLER_19_55
*383 FILLER_19_57
*384 FILLER_19_69
*385 FILLER_19_81
*386 FILLER_19_93
*387 FILLER_1_105
*388 FILLER_1_111
*389 FILLER_1_113
*390 FILLER_1_125
*391 FILLER_1_137
*392 FILLER_1_149
*393 FILLER_1_15
*394 FILLER_1_161
*395 FILLER_1_167
*396 FILLER_1_169
*397 FILLER_1_181
*398 FILLER_1_193
*399 FILLER_1_205
*400 FILLER_1_217
*401 FILLER_1_223
*402 FILLER_1_225
*403 FILLER_1_237
*404 FILLER_1_249
*405 FILLER_1_261
*406 FILLER_1_27
*407 FILLER_1_273
*408 FILLER_1_279
*409 FILLER_1_281
*410 FILLER_1_293
*411 FILLER_1_3
*412 FILLER_1_39
*413 FILLER_1_51
*414 FILLER_1_55
*415 FILLER_1_57
*416 FILLER_1_69
*417 FILLER_1_81
*418 FILLER_1_93
*419 FILLER_20_109
*420 FILLER_20_121
*421 FILLER_20_133
*422 FILLER_20_139
*423 FILLER_20_141
*424 FILLER_20_153
*425 FILLER_20_165
*426 FILLER_20_177
*427 FILLER_20_189
*428 FILLER_20_19
*429 FILLER_20_195
*430 FILLER_20_197
*431 FILLER_20_209
*432 FILLER_20_221
*433 FILLER_20_233
*434 FILLER_20_245
*435 FILLER_20_251
*436 FILLER_20_253
*437 FILLER_20_265
*438 FILLER_20_27
*439 FILLER_20_277
*440 FILLER_20_289
*441 FILLER_20_29
*442 FILLER_20_297
*443 FILLER_20_41
*444 FILLER_20_53
*445 FILLER_20_65
*446 FILLER_20_77
*447 FILLER_20_83
*448 FILLER_20_85
*449 FILLER_20_97
*450 FILLER_21_105
*451 FILLER_21_111
*452 FILLER_21_113
*453 FILLER_21_125
*454 FILLER_21_137
*455 FILLER_21_149
*456 FILLER_21_161
*457 FILLER_21_167
*458 FILLER_21_169
*459 FILLER_21_181
*460 FILLER_21_193
*461 FILLER_21_205
*462 FILLER_21_217
*463 FILLER_21_223
*464 FILLER_21_225
*465 FILLER_21_237
*466 FILLER_21_249
*467 FILLER_21_261
*468 FILLER_21_27
*469 FILLER_21_273
*470 FILLER_21_279
*471 FILLER_21_281
*472 FILLER_21_293
*473 FILLER_21_3
*474 FILLER_21_38
*475 FILLER_21_47
*476 FILLER_21_55
*477 FILLER_21_57
*478 FILLER_21_69
*479 FILLER_21_81
*480 FILLER_21_93
*481 FILLER_22_109
*482 FILLER_22_121
*483 FILLER_22_133
*484 FILLER_22_139
*485 FILLER_22_141
*486 FILLER_22_153
*487 FILLER_22_165
*488 FILLER_22_177
*489 FILLER_22_189
*490 FILLER_22_195
*491 FILLER_22_197
*492 FILLER_22_209
*493 FILLER_22_221
*494 FILLER_22_233
*495 FILLER_22_24
*496 FILLER_22_245
*497 FILLER_22_251
*498 FILLER_22_253
*499 FILLER_22_265
*500 FILLER_22_277
*501 FILLER_22_289
*502 FILLER_22_297
*503 FILLER_22_3
*504 FILLER_22_36
*505 FILLER_22_48
*506 FILLER_22_60
*507 FILLER_22_72
*508 FILLER_22_85
*509 FILLER_22_97
*510 FILLER_23_105
*511 FILLER_23_111
*512 FILLER_23_113
*513 FILLER_23_125
*514 FILLER_23_137
*515 FILLER_23_149
*516 FILLER_23_161
*517 FILLER_23_167
*518 FILLER_23_169
*519 FILLER_23_181
*520 FILLER_23_19
*521 FILLER_23_193
*522 FILLER_23_205
*523 FILLER_23_217
*524 FILLER_23_223
*525 FILLER_23_225
*526 FILLER_23_237
*527 FILLER_23_249
*528 FILLER_23_26
*529 FILLER_23_261
*530 FILLER_23_273
*531 FILLER_23_279
*532 FILLER_23_281
*533 FILLER_23_293
*534 FILLER_23_38
*535 FILLER_23_50
*536 FILLER_23_57
*537 FILLER_23_69
*538 FILLER_23_81
*539 FILLER_23_93
*540 FILLER_24_10
*541 FILLER_24_109
*542 FILLER_24_121
*543 FILLER_24_133
*544 FILLER_24_139
*545 FILLER_24_141
*546 FILLER_24_153
*547 FILLER_24_165
*548 FILLER_24_177
*549 FILLER_24_189
*550 FILLER_24_195
*551 FILLER_24_197
*552 FILLER_24_209
*553 FILLER_24_21
*554 FILLER_24_221
*555 FILLER_24_233
*556 FILLER_24_245
*557 FILLER_24_251
*558 FILLER_24_253
*559 FILLER_24_265
*560 FILLER_24_27
*561 FILLER_24_277
*562 FILLER_24_289
*563 FILLER_24_29
*564 FILLER_24_297
*565 FILLER_24_41
*566 FILLER_24_53
*567 FILLER_24_65
*568 FILLER_24_77
*569 FILLER_24_83
*570 FILLER_24_85
*571 FILLER_24_97
*572 FILLER_25_10
*573 FILLER_25_105
*574 FILLER_25_111
*575 FILLER_25_113
*576 FILLER_25_125
*577 FILLER_25_137
*578 FILLER_25_149
*579 FILLER_25_161
*580 FILLER_25_167
*581 FILLER_25_169
*582 FILLER_25_181
*583 FILLER_25_193
*584 FILLER_25_205
*585 FILLER_25_217
*586 FILLER_25_22
*587 FILLER_25_223
*588 FILLER_25_225
*589 FILLER_25_237
*590 FILLER_25_249
*591 FILLER_25_261
*592 FILLER_25_273
*593 FILLER_25_279
*594 FILLER_25_281
*595 FILLER_25_293
*596 FILLER_25_34
*597 FILLER_25_46
*598 FILLER_25_54
*599 FILLER_25_57
*600 FILLER_25_69
*601 FILLER_25_81
*602 FILLER_25_93
*603 FILLER_26_109
*604 FILLER_26_121
*605 FILLER_26_133
*606 FILLER_26_139
*607 FILLER_26_141
*608 FILLER_26_153
*609 FILLER_26_165
*610 FILLER_26_177
*611 FILLER_26_18
*612 FILLER_26_189
*613 FILLER_26_195
*614 FILLER_26_197
*615 FILLER_26_209
*616 FILLER_26_221
*617 FILLER_26_233
*618 FILLER_26_245
*619 FILLER_26_251
*620 FILLER_26_253
*621 FILLER_26_26
*622 FILLER_26_265
*623 FILLER_26_277
*624 FILLER_26_289
*625 FILLER_26_29
*626 FILLER_26_297
*627 FILLER_26_41
*628 FILLER_26_53
*629 FILLER_26_6
*630 FILLER_26_65
*631 FILLER_26_77
*632 FILLER_26_83
*633 FILLER_26_85
*634 FILLER_26_97
*635 FILLER_27_105
*636 FILLER_27_111
*637 FILLER_27_113
*638 FILLER_27_125
*639 FILLER_27_137
*640 FILLER_27_149
*641 FILLER_27_161
*642 FILLER_27_167
*643 FILLER_27_169
*644 FILLER_27_18
*645 FILLER_27_181
*646 FILLER_27_193
*647 FILLER_27_205
*648 FILLER_27_217
*649 FILLER_27_223
*650 FILLER_27_225
*651 FILLER_27_237
*652 FILLER_27_249
*653 FILLER_27_261
*654 FILLER_27_273
*655 FILLER_27_279
*656 FILLER_27_281
*657 FILLER_27_293
*658 FILLER_27_30
*659 FILLER_27_42
*660 FILLER_27_54
*661 FILLER_27_57
*662 FILLER_27_6
*663 FILLER_27_69
*664 FILLER_27_81
*665 FILLER_27_93
*666 FILLER_28_109
*667 FILLER_28_121
*668 FILLER_28_133
*669 FILLER_28_139
*670 FILLER_28_141
*671 FILLER_28_15
*672 FILLER_28_153
*673 FILLER_28_165
*674 FILLER_28_177
*675 FILLER_28_189
*676 FILLER_28_195
*677 FILLER_28_197
*678 FILLER_28_209
*679 FILLER_28_221
*680 FILLER_28_233
*681 FILLER_28_245
*682 FILLER_28_251
*683 FILLER_28_253
*684 FILLER_28_265
*685 FILLER_28_27
*686 FILLER_28_277
*687 FILLER_28_289
*688 FILLER_28_29
*689 FILLER_28_297
*690 FILLER_28_3
*691 FILLER_28_41
*692 FILLER_28_53
*693 FILLER_28_65
*694 FILLER_28_77
*695 FILLER_28_83
*696 FILLER_28_85
*697 FILLER_28_97
*698 FILLER_29_105
*699 FILLER_29_111
*700 FILLER_29_113
*701 FILLER_29_125
*702 FILLER_29_137
*703 FILLER_29_149
*704 FILLER_29_15
*705 FILLER_29_161
*706 FILLER_29_167
*707 FILLER_29_169
*708 FILLER_29_181
*709 FILLER_29_193
*710 FILLER_29_205
*711 FILLER_29_217
*712 FILLER_29_223
*713 FILLER_29_225
*714 FILLER_29_237
*715 FILLER_29_249
*716 FILLER_29_261
*717 FILLER_29_27
*718 FILLER_29_273
*719 FILLER_29_279
*720 FILLER_29_281
*721 FILLER_29_293
*722 FILLER_29_3
*723 FILLER_29_39
*724 FILLER_29_51
*725 FILLER_29_55
*726 FILLER_29_57
*727 FILLER_29_69
*728 FILLER_29_81
*729 FILLER_29_93
*730 FILLER_2_109
*731 FILLER_2_121
*732 FILLER_2_133
*733 FILLER_2_139
*734 FILLER_2_141
*735 FILLER_2_15
*736 FILLER_2_153
*737 FILLER_2_165
*738 FILLER_2_177
*739 FILLER_2_189
*740 FILLER_2_195
*741 FILLER_2_197
*742 FILLER_2_209
*743 FILLER_2_221
*744 FILLER_2_233
*745 FILLER_2_245
*746 FILLER_2_251
*747 FILLER_2_253
*748 FILLER_2_265
*749 FILLER_2_27
*750 FILLER_2_277
*751 FILLER_2_289
*752 FILLER_2_29
*753 FILLER_2_297
*754 FILLER_2_3
*755 FILLER_2_41
*756 FILLER_2_53
*757 FILLER_2_65
*758 FILLER_2_77
*759 FILLER_2_83
*760 FILLER_2_85
*761 FILLER_2_97
*762 FILLER_30_109
*763 FILLER_30_121
*764 FILLER_30_133
*765 FILLER_30_139
*766 FILLER_30_141
*767 FILLER_30_153
*768 FILLER_30_165
*769 FILLER_30_177
*770 FILLER_30_189
*771 FILLER_30_195
*772 FILLER_30_197
*773 FILLER_30_20
*774 FILLER_30_209
*775 FILLER_30_221
*776 FILLER_30_233
*777 FILLER_30_245
*778 FILLER_30_251
*779 FILLER_30_253
*780 FILLER_30_265
*781 FILLER_30_277
*782 FILLER_30_289
*783 FILLER_30_29
*784 FILLER_30_297
*785 FILLER_30_41
*786 FILLER_30_53
*787 FILLER_30_65
*788 FILLER_30_77
*789 FILLER_30_8
*790 FILLER_30_83
*791 FILLER_30_85
*792 FILLER_30_97
*793 FILLER_31_105
*794 FILLER_31_111
*795 FILLER_31_113
*796 FILLER_31_125
*797 FILLER_31_137
*798 FILLER_31_149
*799 FILLER_31_161
*800 FILLER_31_167
*801 FILLER_31_169
*802 FILLER_31_18
*803 FILLER_31_181
*804 FILLER_31_193
*805 FILLER_31_205
*806 FILLER_31_217
*807 FILLER_31_223
*808 FILLER_31_225
*809 FILLER_31_237
*810 FILLER_31_249
*811 FILLER_31_261
*812 FILLER_31_273
*813 FILLER_31_279
*814 FILLER_31_281
*815 FILLER_31_293
*816 FILLER_31_30
*817 FILLER_31_42
*818 FILLER_31_54
*819 FILLER_31_57
*820 FILLER_31_6
*821 FILLER_31_69
*822 FILLER_31_81
*823 FILLER_31_93
*824 FILLER_32_109
*825 FILLER_32_121
*826 FILLER_32_133
*827 FILLER_32_139
*828 FILLER_32_141
*829 FILLER_32_153
*830 FILLER_32_165
*831 FILLER_32_177
*832 FILLER_32_189
*833 FILLER_32_19
*834 FILLER_32_195
*835 FILLER_32_197
*836 FILLER_32_209
*837 FILLER_32_221
*838 FILLER_32_233
*839 FILLER_32_245
*840 FILLER_32_251
*841 FILLER_32_253
*842 FILLER_32_265
*843 FILLER_32_27
*844 FILLER_32_277
*845 FILLER_32_289
*846 FILLER_32_29
*847 FILLER_32_297
*848 FILLER_32_41
*849 FILLER_32_53
*850 FILLER_32_65
*851 FILLER_32_7
*852 FILLER_32_77
*853 FILLER_32_83
*854 FILLER_32_85
*855 FILLER_32_97
*856 FILLER_33_105
*857 FILLER_33_111
*858 FILLER_33_113
*859 FILLER_33_125
*860 FILLER_33_137
*861 FILLER_33_149
*862 FILLER_33_15
*863 FILLER_33_161
*864 FILLER_33_167
*865 FILLER_33_169
*866 FILLER_33_181
*867 FILLER_33_193
*868 FILLER_33_205
*869 FILLER_33_217
*870 FILLER_33_223
*871 FILLER_33_225
*872 FILLER_33_237
*873 FILLER_33_249
*874 FILLER_33_261
*875 FILLER_33_27
*876 FILLER_33_273
*877 FILLER_33_279
*878 FILLER_33_281
*879 FILLER_33_293
*880 FILLER_33_3
*881 FILLER_33_39
*882 FILLER_33_51
*883 FILLER_33_55
*884 FILLER_33_57
*885 FILLER_33_69
*886 FILLER_33_81
*887 FILLER_33_93
*888 FILLER_34_109
*889 FILLER_34_121
*890 FILLER_34_133
*891 FILLER_34_139
*892 FILLER_34_141
*893 FILLER_34_153
*894 FILLER_34_165
*895 FILLER_34_177
*896 FILLER_34_189
*897 FILLER_34_19
*898 FILLER_34_195
*899 FILLER_34_197
*900 FILLER_34_209
*901 FILLER_34_221
*902 FILLER_34_233
*903 FILLER_34_245
*904 FILLER_34_251
*905 FILLER_34_253
*906 FILLER_34_265
*907 FILLER_34_27
*908 FILLER_34_277
*909 FILLER_34_289
*910 FILLER_34_29
*911 FILLER_34_297
*912 FILLER_34_41
*913 FILLER_34_53
*914 FILLER_34_65
*915 FILLER_34_7
*916 FILLER_34_77
*917 FILLER_34_83
*918 FILLER_34_85
*919 FILLER_34_97
*920 FILLER_35_105
*921 FILLER_35_111
*922 FILLER_35_113
*923 FILLER_35_125
*924 FILLER_35_137
*925 FILLER_35_149
*926 FILLER_35_161
*927 FILLER_35_167
*928 FILLER_35_169
*929 FILLER_35_18
*930 FILLER_35_181
*931 FILLER_35_193
*932 FILLER_35_205
*933 FILLER_35_217
*934 FILLER_35_223
*935 FILLER_35_225
*936 FILLER_35_237
*937 FILLER_35_249
*938 FILLER_35_261
*939 FILLER_35_273
*940 FILLER_35_279
*941 FILLER_35_281
*942 FILLER_35_293
*943 FILLER_35_30
*944 FILLER_35_42
*945 FILLER_35_54
*946 FILLER_35_57
*947 FILLER_35_6
*948 FILLER_35_69
*949 FILLER_35_81
*950 FILLER_35_93
*951 FILLER_36_109
*952 FILLER_36_121
*953 FILLER_36_133
*954 FILLER_36_139
*955 FILLER_36_141
*956 FILLER_36_15
*957 FILLER_36_153
*958 FILLER_36_165
*959 FILLER_36_177
*960 FILLER_36_189
*961 FILLER_36_195
*962 FILLER_36_197
*963 FILLER_36_209
*964 FILLER_36_221
*965 FILLER_36_233
*966 FILLER_36_245
*967 FILLER_36_251
*968 FILLER_36_253
*969 FILLER_36_265
*970 FILLER_36_27
*971 FILLER_36_277
*972 FILLER_36_289
*973 FILLER_36_29
*974 FILLER_36_297
*975 FILLER_36_3
*976 FILLER_36_41
*977 FILLER_36_53
*978 FILLER_36_65
*979 FILLER_36_77
*980 FILLER_36_83
*981 FILLER_36_85
*982 FILLER_36_97
*983 FILLER_37_105
*984 FILLER_37_111
*985 FILLER_37_113
*986 FILLER_37_125
*987 FILLER_37_137
*988 FILLER_37_149
*989 FILLER_37_15
*990 FILLER_37_161
*991 FILLER_37_167
*992 FILLER_37_169
*993 FILLER_37_181
*994 FILLER_37_193
*995 FILLER_37_205
*996 FILLER_37_217
*997 FILLER_37_223
*998 FILLER_37_225
*999 FILLER_37_237
*1000 FILLER_37_249
*1001 FILLER_37_261
*1002 FILLER_37_27
*1003 FILLER_37_273
*1004 FILLER_37_279
*1005 FILLER_37_281
*1006 FILLER_37_293
*1007 FILLER_37_3
*1008 FILLER_37_39
*1009 FILLER_37_51
*1010 FILLER_37_55
*1011 FILLER_37_57
*1012 FILLER_37_69
*1013 FILLER_37_81
*1014 FILLER_37_93
*1015 FILLER_38_109
*1016 FILLER_38_121
*1017 FILLER_38_133
*1018 FILLER_38_139
*1019 FILLER_38_141
*1020 FILLER_38_15
*1021 FILLER_38_153
*1022 FILLER_38_165
*1023 FILLER_38_177
*1024 FILLER_38_189
*1025 FILLER_38_195
*1026 FILLER_38_197
*1027 FILLER_38_209
*1028 FILLER_38_221
*1029 FILLER_38_233
*1030 FILLER_38_245
*1031 FILLER_38_251
*1032 FILLER_38_253
*1033 FILLER_38_265
*1034 FILLER_38_27
*1035 FILLER_38_277
*1036 FILLER_38_289
*1037 FILLER_38_29
*1038 FILLER_38_297
*1039 FILLER_38_3
*1040 FILLER_38_41
*1041 FILLER_38_53
*1042 FILLER_38_65
*1043 FILLER_38_77
*1044 FILLER_38_83
*1045 FILLER_38_85
*1046 FILLER_38_97
*1047 FILLER_39_105
*1048 FILLER_39_111
*1049 FILLER_39_113
*1050 FILLER_39_125
*1051 FILLER_39_137
*1052 FILLER_39_149
*1053 FILLER_39_15
*1054 FILLER_39_161
*1055 FILLER_39_167
*1056 FILLER_39_169
*1057 FILLER_39_181
*1058 FILLER_39_193
*1059 FILLER_39_205
*1060 FILLER_39_217
*1061 FILLER_39_223
*1062 FILLER_39_225
*1063 FILLER_39_237
*1064 FILLER_39_249
*1065 FILLER_39_261
*1066 FILLER_39_27
*1067 FILLER_39_273
*1068 FILLER_39_279
*1069 FILLER_39_281
*1070 FILLER_39_293
*1071 FILLER_39_3
*1072 FILLER_39_39
*1073 FILLER_39_51
*1074 FILLER_39_55
*1075 FILLER_39_57
*1076 FILLER_39_69
*1077 FILLER_39_81
*1078 FILLER_39_93
*1079 FILLER_3_105
*1080 FILLER_3_111
*1081 FILLER_3_113
*1082 FILLER_3_125
*1083 FILLER_3_137
*1084 FILLER_3_149
*1085 FILLER_3_15
*1086 FILLER_3_161
*1087 FILLER_3_167
*1088 FILLER_3_169
*1089 FILLER_3_181
*1090 FILLER_3_193
*1091 FILLER_3_205
*1092 FILLER_3_217
*1093 FILLER_3_223
*1094 FILLER_3_225
*1095 FILLER_3_237
*1096 FILLER_3_249
*1097 FILLER_3_261
*1098 FILLER_3_27
*1099 FILLER_3_273
*1100 FILLER_3_279
*1101 FILLER_3_281
*1102 FILLER_3_293
*1103 FILLER_3_3
*1104 FILLER_3_39
*1105 FILLER_3_51
*1106 FILLER_3_55
*1107 FILLER_3_57
*1108 FILLER_3_69
*1109 FILLER_3_81
*1110 FILLER_3_93
*1111 FILLER_40_109
*1112 FILLER_40_121
*1113 FILLER_40_133
*1114 FILLER_40_139
*1115 FILLER_40_141
*1116 FILLER_40_15
*1117 FILLER_40_153
*1118 FILLER_40_165
*1119 FILLER_40_177
*1120 FILLER_40_189
*1121 FILLER_40_195
*1122 FILLER_40_197
*1123 FILLER_40_209
*1124 FILLER_40_221
*1125 FILLER_40_233
*1126 FILLER_40_245
*1127 FILLER_40_251
*1128 FILLER_40_253
*1129 FILLER_40_265
*1130 FILLER_40_27
*1131 FILLER_40_277
*1132 FILLER_40_289
*1133 FILLER_40_29
*1134 FILLER_40_297
*1135 FILLER_40_3
*1136 FILLER_40_41
*1137 FILLER_40_53
*1138 FILLER_40_65
*1139 FILLER_40_77
*1140 FILLER_40_83
*1141 FILLER_40_85
*1142 FILLER_40_97
*1143 FILLER_41_105
*1144 FILLER_41_111
*1145 FILLER_41_113
*1146 FILLER_41_125
*1147 FILLER_41_137
*1148 FILLER_41_149
*1149 FILLER_41_15
*1150 FILLER_41_161
*1151 FILLER_41_167
*1152 FILLER_41_169
*1153 FILLER_41_181
*1154 FILLER_41_193
*1155 FILLER_41_205
*1156 FILLER_41_217
*1157 FILLER_41_223
*1158 FILLER_41_225
*1159 FILLER_41_237
*1160 FILLER_41_249
*1161 FILLER_41_261
*1162 FILLER_41_27
*1163 FILLER_41_273
*1164 FILLER_41_279
*1165 FILLER_41_281
*1166 FILLER_41_293
*1167 FILLER_41_3
*1168 FILLER_41_39
*1169 FILLER_41_51
*1170 FILLER_41_55
*1171 FILLER_41_57
*1172 FILLER_41_69
*1173 FILLER_41_81
*1174 FILLER_41_93
*1175 FILLER_42_109
*1176 FILLER_42_121
*1177 FILLER_42_133
*1178 FILLER_42_139
*1179 FILLER_42_141
*1180 FILLER_42_153
*1181 FILLER_42_165
*1182 FILLER_42_177
*1183 FILLER_42_189
*1184 FILLER_42_19
*1185 FILLER_42_195
*1186 FILLER_42_197
*1187 FILLER_42_209
*1188 FILLER_42_221
*1189 FILLER_42_233
*1190 FILLER_42_245
*1191 FILLER_42_251
*1192 FILLER_42_253
*1193 FILLER_42_265
*1194 FILLER_42_27
*1195 FILLER_42_277
*1196 FILLER_42_289
*1197 FILLER_42_29
*1198 FILLER_42_297
*1199 FILLER_42_41
*1200 FILLER_42_53
*1201 FILLER_42_65
*1202 FILLER_42_7
*1203 FILLER_42_77
*1204 FILLER_42_83
*1205 FILLER_42_85
*1206 FILLER_42_97
*1207 FILLER_43_105
*1208 FILLER_43_111
*1209 FILLER_43_113
*1210 FILLER_43_125
*1211 FILLER_43_137
*1212 FILLER_43_149
*1213 FILLER_43_15
*1214 FILLER_43_161
*1215 FILLER_43_167
*1216 FILLER_43_169
*1217 FILLER_43_181
*1218 FILLER_43_193
*1219 FILLER_43_205
*1220 FILLER_43_217
*1221 FILLER_43_223
*1222 FILLER_43_225
*1223 FILLER_43_237
*1224 FILLER_43_249
*1225 FILLER_43_261
*1226 FILLER_43_27
*1227 FILLER_43_273
*1228 FILLER_43_279
*1229 FILLER_43_281
*1230 FILLER_43_293
*1231 FILLER_43_3
*1232 FILLER_43_39
*1233 FILLER_43_51
*1234 FILLER_43_55
*1235 FILLER_43_57
*1236 FILLER_43_69
*1237 FILLER_43_81
*1238 FILLER_43_93
*1239 FILLER_44_109
*1240 FILLER_44_121
*1241 FILLER_44_133
*1242 FILLER_44_139
*1243 FILLER_44_141
*1244 FILLER_44_153
*1245 FILLER_44_165
*1246 FILLER_44_177
*1247 FILLER_44_189
*1248 FILLER_44_19
*1249 FILLER_44_195
*1250 FILLER_44_197
*1251 FILLER_44_209
*1252 FILLER_44_221
*1253 FILLER_44_233
*1254 FILLER_44_245
*1255 FILLER_44_251
*1256 FILLER_44_253
*1257 FILLER_44_265
*1258 FILLER_44_27
*1259 FILLER_44_277
*1260 FILLER_44_289
*1261 FILLER_44_29
*1262 FILLER_44_297
*1263 FILLER_44_41
*1264 FILLER_44_53
*1265 FILLER_44_65
*1266 FILLER_44_7
*1267 FILLER_44_77
*1268 FILLER_44_83
*1269 FILLER_44_85
*1270 FILLER_44_97
*1271 FILLER_45_105
*1272 FILLER_45_111
*1273 FILLER_45_113
*1274 FILLER_45_125
*1275 FILLER_45_137
*1276 FILLER_45_149
*1277 FILLER_45_15
*1278 FILLER_45_161
*1279 FILLER_45_167
*1280 FILLER_45_169
*1281 FILLER_45_181
*1282 FILLER_45_193
*1283 FILLER_45_205
*1284 FILLER_45_217
*1285 FILLER_45_223
*1286 FILLER_45_225
*1287 FILLER_45_237
*1288 FILLER_45_249
*1289 FILLER_45_261
*1290 FILLER_45_27
*1291 FILLER_45_273
*1292 FILLER_45_279
*1293 FILLER_45_281
*1294 FILLER_45_293
*1295 FILLER_45_3
*1296 FILLER_45_39
*1297 FILLER_45_51
*1298 FILLER_45_55
*1299 FILLER_45_57
*1300 FILLER_45_69
*1301 FILLER_45_81
*1302 FILLER_45_93
*1303 FILLER_46_109
*1304 FILLER_46_121
*1305 FILLER_46_133
*1306 FILLER_46_139
*1307 FILLER_46_141
*1308 FILLER_46_153
*1309 FILLER_46_165
*1310 FILLER_46_177
*1311 FILLER_46_189
*1312 FILLER_46_19
*1313 FILLER_46_195
*1314 FILLER_46_197
*1315 FILLER_46_209
*1316 FILLER_46_221
*1317 FILLER_46_233
*1318 FILLER_46_245
*1319 FILLER_46_251
*1320 FILLER_46_253
*1321 FILLER_46_265
*1322 FILLER_46_27
*1323 FILLER_46_277
*1324 FILLER_46_289
*1325 FILLER_46_29
*1326 FILLER_46_297
*1327 FILLER_46_41
*1328 FILLER_46_53
*1329 FILLER_46_65
*1330 FILLER_46_7
*1331 FILLER_46_77
*1332 FILLER_46_83
*1333 FILLER_46_85
*1334 FILLER_46_97
*1335 FILLER_47_105
*1336 FILLER_47_111
*1337 FILLER_47_113
*1338 FILLER_47_125
*1339 FILLER_47_137
*1340 FILLER_47_149
*1341 FILLER_47_15
*1342 FILLER_47_161
*1343 FILLER_47_167
*1344 FILLER_47_169
*1345 FILLER_47_181
*1346 FILLER_47_193
*1347 FILLER_47_205
*1348 FILLER_47_217
*1349 FILLER_47_223
*1350 FILLER_47_225
*1351 FILLER_47_237
*1352 FILLER_47_249
*1353 FILLER_47_261
*1354 FILLER_47_27
*1355 FILLER_47_273
*1356 FILLER_47_279
*1357 FILLER_47_281
*1358 FILLER_47_293
*1359 FILLER_47_3
*1360 FILLER_47_39
*1361 FILLER_47_51
*1362 FILLER_47_55
*1363 FILLER_47_57
*1364 FILLER_47_69
*1365 FILLER_47_81
*1366 FILLER_47_93
*1367 FILLER_48_109
*1368 FILLER_48_121
*1369 FILLER_48_133
*1370 FILLER_48_139
*1371 FILLER_48_141
*1372 FILLER_48_15
*1373 FILLER_48_153
*1374 FILLER_48_165
*1375 FILLER_48_177
*1376 FILLER_48_189
*1377 FILLER_48_195
*1378 FILLER_48_197
*1379 FILLER_48_209
*1380 FILLER_48_221
*1381 FILLER_48_233
*1382 FILLER_48_245
*1383 FILLER_48_251
*1384 FILLER_48_253
*1385 FILLER_48_265
*1386 FILLER_48_27
*1387 FILLER_48_277
*1388 FILLER_48_289
*1389 FILLER_48_29
*1390 FILLER_48_297
*1391 FILLER_48_3
*1392 FILLER_48_41
*1393 FILLER_48_53
*1394 FILLER_48_65
*1395 FILLER_48_77
*1396 FILLER_48_83
*1397 FILLER_48_85
*1398 FILLER_48_97
*1399 FILLER_49_105
*1400 FILLER_49_111
*1401 FILLER_49_113
*1402 FILLER_49_125
*1403 FILLER_49_137
*1404 FILLER_49_149
*1405 FILLER_49_15
*1406 FILLER_49_161
*1407 FILLER_49_167
*1408 FILLER_49_169
*1409 FILLER_49_181
*1410 FILLER_49_193
*1411 FILLER_49_205
*1412 FILLER_49_217
*1413 FILLER_49_223
*1414 FILLER_49_225
*1415 FILLER_49_237
*1416 FILLER_49_249
*1417 FILLER_49_261
*1418 FILLER_49_27
*1419 FILLER_49_273
*1420 FILLER_49_279
*1421 FILLER_49_281
*1422 FILLER_49_293
*1423 FILLER_49_3
*1424 FILLER_49_39
*1425 FILLER_49_51
*1426 FILLER_49_55
*1427 FILLER_49_57
*1428 FILLER_49_69
*1429 FILLER_49_81
*1430 FILLER_49_93
*1431 FILLER_4_109
*1432 FILLER_4_121
*1433 FILLER_4_133
*1434 FILLER_4_139
*1435 FILLER_4_141
*1436 FILLER_4_15
*1437 FILLER_4_153
*1438 FILLER_4_165
*1439 FILLER_4_177
*1440 FILLER_4_189
*1441 FILLER_4_195
*1442 FILLER_4_197
*1443 FILLER_4_209
*1444 FILLER_4_221
*1445 FILLER_4_233
*1446 FILLER_4_245
*1447 FILLER_4_251
*1448 FILLER_4_253
*1449 FILLER_4_265
*1450 FILLER_4_27
*1451 FILLER_4_277
*1452 FILLER_4_289
*1453 FILLER_4_29
*1454 FILLER_4_297
*1455 FILLER_4_3
*1456 FILLER_4_41
*1457 FILLER_4_53
*1458 FILLER_4_65
*1459 FILLER_4_77
*1460 FILLER_4_83
*1461 FILLER_4_85
*1462 FILLER_4_97
*1463 FILLER_50_109
*1464 FILLER_50_121
*1465 FILLER_50_133
*1466 FILLER_50_139
*1467 FILLER_50_141
*1468 FILLER_50_15
*1469 FILLER_50_153
*1470 FILLER_50_165
*1471 FILLER_50_177
*1472 FILLER_50_189
*1473 FILLER_50_195
*1474 FILLER_50_197
*1475 FILLER_50_209
*1476 FILLER_50_221
*1477 FILLER_50_233
*1478 FILLER_50_245
*1479 FILLER_50_251
*1480 FILLER_50_253
*1481 FILLER_50_265
*1482 FILLER_50_27
*1483 FILLER_50_277
*1484 FILLER_50_289
*1485 FILLER_50_29
*1486 FILLER_50_297
*1487 FILLER_50_3
*1488 FILLER_50_41
*1489 FILLER_50_53
*1490 FILLER_50_65
*1491 FILLER_50_77
*1492 FILLER_50_83
*1493 FILLER_50_85
*1494 FILLER_50_97
*1495 FILLER_51_105
*1496 FILLER_51_111
*1497 FILLER_51_113
*1498 FILLER_51_125
*1499 FILLER_51_137
*1500 FILLER_51_149
*1501 FILLER_51_15
*1502 FILLER_51_161
*1503 FILLER_51_167
*1504 FILLER_51_169
*1505 FILLER_51_181
*1506 FILLER_51_193
*1507 FILLER_51_205
*1508 FILLER_51_217
*1509 FILLER_51_223
*1510 FILLER_51_225
*1511 FILLER_51_237
*1512 FILLER_51_249
*1513 FILLER_51_261
*1514 FILLER_51_27
*1515 FILLER_51_273
*1516 FILLER_51_279
*1517 FILLER_51_281
*1518 FILLER_51_293
*1519 FILLER_51_3
*1520 FILLER_51_39
*1521 FILLER_51_51
*1522 FILLER_51_55
*1523 FILLER_51_57
*1524 FILLER_51_69
*1525 FILLER_51_81
*1526 FILLER_51_93
*1527 FILLER_52_109
*1528 FILLER_52_121
*1529 FILLER_52_133
*1530 FILLER_52_139
*1531 FILLER_52_141
*1532 FILLER_52_15
*1533 FILLER_52_153
*1534 FILLER_52_165
*1535 FILLER_52_177
*1536 FILLER_52_189
*1537 FILLER_52_195
*1538 FILLER_52_197
*1539 FILLER_52_209
*1540 FILLER_52_221
*1541 FILLER_52_233
*1542 FILLER_52_245
*1543 FILLER_52_251
*1544 FILLER_52_253
*1545 FILLER_52_265
*1546 FILLER_52_27
*1547 FILLER_52_277
*1548 FILLER_52_289
*1549 FILLER_52_29
*1550 FILLER_52_297
*1551 FILLER_52_3
*1552 FILLER_52_41
*1553 FILLER_52_53
*1554 FILLER_52_65
*1555 FILLER_52_77
*1556 FILLER_52_83
*1557 FILLER_52_85
*1558 FILLER_52_97
*1559 FILLER_53_105
*1560 FILLER_53_111
*1561 FILLER_53_113
*1562 FILLER_53_125
*1563 FILLER_53_137
*1564 FILLER_53_149
*1565 FILLER_53_15
*1566 FILLER_53_161
*1567 FILLER_53_167
*1568 FILLER_53_169
*1569 FILLER_53_181
*1570 FILLER_53_193
*1571 FILLER_53_205
*1572 FILLER_53_217
*1573 FILLER_53_223
*1574 FILLER_53_225
*1575 FILLER_53_237
*1576 FILLER_53_249
*1577 FILLER_53_261
*1578 FILLER_53_27
*1579 FILLER_53_273
*1580 FILLER_53_279
*1581 FILLER_53_281
*1582 FILLER_53_293
*1583 FILLER_53_3
*1584 FILLER_53_39
*1585 FILLER_53_51