*SPEF "ieee 1481-1999"
*DESIGN "user_module_341608574336631379"
*DATE "11:11:11 Fri 11 11, 1111"
*VENDOR "OpenRCX"
*PROGRAM "Parallel Extraction"
*VERSION "1.0"
*DESIGN_FLOW "NAME_SCOPE LOCAL" "PIN_CAP NONE"
*DIVIDER /
*DELIMITER :
*BUS_DELIMITER []
*T_UNIT 1 NS
*C_UNIT 1 PF
*R_UNIT 1 OHM
*L_UNIT 1 HENRY

*NAME_MAP
*1 io_in[0]
*2 io_in[1]
*3 io_in[2]
*4 io_in[3]
*5 io_in[4]
*6 io_in[5]
*7 io_in[6]
*8 io_in[7]
*9 io_out[0]
*10 io_out[1]
*11 net8
*12 net9
*13 net10
*14 net11
*15 net12
*16 net13
*19 _00_
*20 _01_
*21 _02_
*22 _03_
*23 _04_
*24 _05_
*25 gate13\.out
*26 gate3\.out
*27 net1
*28 net2
*29 net3
*30 net4
*31 net5
*32 net6
*33 net7
*34 FILLER_0_109
*35 FILLER_0_113
*36 FILLER_0_125
*37 FILLER_0_137
*38 FILLER_0_141
*39 FILLER_0_15
*40 FILLER_0_153
*41 FILLER_0_165
*42 FILLER_0_169
*43 FILLER_0_181
*44 FILLER_0_193
*45 FILLER_0_197
*46 FILLER_0_209
*47 FILLER_0_221
*48 FILLER_0_225
*49 FILLER_0_237
*50 FILLER_0_249
*51 FILLER_0_253
*52 FILLER_0_265
*53 FILLER_0_27
*54 FILLER_0_277
*55 FILLER_0_281
*56 FILLER_0_29
*57 FILLER_0_293
*58 FILLER_0_3
*59 FILLER_0_41
*60 FILLER_0_53
*61 FILLER_0_57
*62 FILLER_0_69
*63 FILLER_0_81
*64 FILLER_0_85
*65 FILLER_0_97
*66 FILLER_10_109
*67 FILLER_10_121
*68 FILLER_10_133
*69 FILLER_10_139
*70 FILLER_10_141
*71 FILLER_10_15
*72 FILLER_10_153
*73 FILLER_10_165
*74 FILLER_10_177
*75 FILLER_10_189
*76 FILLER_10_195
*77 FILLER_10_197
*78 FILLER_10_209
*79 FILLER_10_221
*80 FILLER_10_233
*81 FILLER_10_245
*82 FILLER_10_251
*83 FILLER_10_253
*84 FILLER_10_265
*85 FILLER_10_27
*86 FILLER_10_277
*87 FILLER_10_289
*88 FILLER_10_29
*89 FILLER_10_297
*90 FILLER_10_3
*91 FILLER_10_41
*92 FILLER_10_53
*93 FILLER_10_65
*94 FILLER_10_77
*95 FILLER_10_83
*96 FILLER_10_85
*97 FILLER_10_97
*98 FILLER_11_105
*99 FILLER_11_111
*100 FILLER_11_113
*101 FILLER_11_125
*102 FILLER_11_137
*103 FILLER_11_149
*104 FILLER_11_161
*105 FILLER_11_167
*106 FILLER_11_169
*107 FILLER_11_18
*108 FILLER_11_181
*109 FILLER_11_193
*110 FILLER_11_205
*111 FILLER_11_217
*112 FILLER_11_223
*113 FILLER_11_225
*114 FILLER_11_237
*115 FILLER_11_249
*116 FILLER_11_261
*117 FILLER_11_273
*118 FILLER_11_279
*119 FILLER_11_281
*120 FILLER_11_293
*121 FILLER_11_30
*122 FILLER_11_42
*123 FILLER_11_54
*124 FILLER_11_57
*125 FILLER_11_6
*126 FILLER_11_69
*127 FILLER_11_81
*128 FILLER_11_93
*129 FILLER_12_109
*130 FILLER_12_12
*131 FILLER_12_121
*132 FILLER_12_133
*133 FILLER_12_139
*134 FILLER_12_141
*135 FILLER_12_153
*136 FILLER_12_165
*137 FILLER_12_177
*138 FILLER_12_189
*139 FILLER_12_195
*140 FILLER_12_197
*141 FILLER_12_209
*142 FILLER_12_221
*143 FILLER_12_233
*144 FILLER_12_24
*145 FILLER_12_245
*146 FILLER_12_251
*147 FILLER_12_253
*148 FILLER_12_265
*149 FILLER_12_277
*150 FILLER_12_289
*151 FILLER_12_29
*152 FILLER_12_297
*153 FILLER_12_41
*154 FILLER_12_53
*155 FILLER_12_65
*156 FILLER_12_77
*157 FILLER_12_83
*158 FILLER_12_85
*159 FILLER_12_97
*160 FILLER_13_105
*161 FILLER_13_111
*162 FILLER_13_113
*163 FILLER_13_125
*164 FILLER_13_137
*165 FILLER_13_149
*166 FILLER_13_16
*167 FILLER_13_161
*168 FILLER_13_167
*169 FILLER_13_169
*170 FILLER_13_181
*171 FILLER_13_193
*172 FILLER_13_205
*173 FILLER_13_217
*174 FILLER_13_223
*175 FILLER_13_225
*176 FILLER_13_237
*177 FILLER_13_249
*178 FILLER_13_261
*179 FILLER_13_273
*180 FILLER_13_279
*181 FILLER_13_28
*182 FILLER_13_281
*183 FILLER_13_293
*184 FILLER_13_40
*185 FILLER_13_52
*186 FILLER_13_57
*187 FILLER_13_69
*188 FILLER_13_81
*189 FILLER_13_93
*190 FILLER_14_109
*191 FILLER_14_121
*192 FILLER_14_133
*193 FILLER_14_139
*194 FILLER_14_141
*195 FILLER_14_15
*196 FILLER_14_153
*197 FILLER_14_165
*198 FILLER_14_177
*199 FILLER_14_189
*200 FILLER_14_195
*201 FILLER_14_197
*202 FILLER_14_209
*203 FILLER_14_221
*204 FILLER_14_233
*205 FILLER_14_245
*206 FILLER_14_251
*207 FILLER_14_253
*208 FILLER_14_265
*209 FILLER_14_27
*210 FILLER_14_277
*211 FILLER_14_289
*212 FILLER_14_29
*213 FILLER_14_297
*214 FILLER_14_3
*215 FILLER_14_41
*216 FILLER_14_53
*217 FILLER_14_65
*218 FILLER_14_77
*219 FILLER_14_83
*220 FILLER_14_85
*221 FILLER_14_97
*222 FILLER_15_105
*223 FILLER_15_111
*224 FILLER_15_113
*225 FILLER_15_125
*226 FILLER_15_13
*227 FILLER_15_137
*228 FILLER_15_149
*229 FILLER_15_161
*230 FILLER_15_167
*231 FILLER_15_169
*232 FILLER_15_181
*233 FILLER_15_193
*234 FILLER_15_205
*235 FILLER_15_217
*236 FILLER_15_223
*237 FILLER_15_225
*238 FILLER_15_237
*239 FILLER_15_249
*240 FILLER_15_25
*241 FILLER_15_261
*242 FILLER_15_273
*243 FILLER_15_279
*244 FILLER_15_281
*245 FILLER_15_293
*246 FILLER_15_37
*247 FILLER_15_49
*248 FILLER_15_55
*249 FILLER_15_57
*250 FILLER_15_6
*251 FILLER_15_69
*252 FILLER_15_81
*253 FILLER_15_93
*254 FILLER_16_109
*255 FILLER_16_121
*256 FILLER_16_133
*257 FILLER_16_139
*258 FILLER_16_141
*259 FILLER_16_153
*260 FILLER_16_16
*261 FILLER_16_165
*262 FILLER_16_177
*263 FILLER_16_189
*264 FILLER_16_195
*265 FILLER_16_197
*266 FILLER_16_209
*267 FILLER_16_221
*268 FILLER_16_233
*269 FILLER_16_245
*270 FILLER_16_251
*271 FILLER_16_253
*272 FILLER_16_265
*273 FILLER_16_277
*274 FILLER_16_289
*275 FILLER_16_29
*276 FILLER_16_297
*277 FILLER_16_41
*278 FILLER_16_53
*279 FILLER_16_65
*280 FILLER_16_77
*281 FILLER_16_83
*282 FILLER_16_85
*283 FILLER_16_97
*284 FILLER_17_105
*285 FILLER_17_111
*286 FILLER_17_113
*287 FILLER_17_125
*288 FILLER_17_137
*289 FILLER_17_149
*290 FILLER_17_15
*291 FILLER_17_161
*292 FILLER_17_167
*293 FILLER_17_169
*294 FILLER_17_181
*295 FILLER_17_193
*296 FILLER_17_205
*297 FILLER_17_217
*298 FILLER_17_223
*299 FILLER_17_225
*300 FILLER_17_237
*301 FILLER_17_249
*302 FILLER_17_261
*303 FILLER_17_27
*304 FILLER_17_273
*305 FILLER_17_279
*306 FILLER_17_281
*307 FILLER_17_293
*308 FILLER_17_3
*309 FILLER_17_39
*310 FILLER_17_51
*311 FILLER_17_55
*312 FILLER_17_57
*313 FILLER_17_69
*314 FILLER_17_81
*315 FILLER_17_93
*316 FILLER_18_109
*317 FILLER_18_121
*318 FILLER_18_133
*319 FILLER_18_139
*320 FILLER_18_141
*321 FILLER_18_15
*322 FILLER_18_153
*323 FILLER_18_165
*324 FILLER_18_177
*325 FILLER_18_189
*326 FILLER_18_195
*327 FILLER_18_197
*328 FILLER_18_209
*329 FILLER_18_221
*330 FILLER_18_233
*331 FILLER_18_245
*332 FILLER_18_251
*333 FILLER_18_253
*334 FILLER_18_265
*335 FILLER_18_27
*336 FILLER_18_277
*337 FILLER_18_289
*338 FILLER_18_29
*339 FILLER_18_297
*340 FILLER_18_3
*341 FILLER_18_41
*342 FILLER_18_53
*343 FILLER_18_65
*344 FILLER_18_77
*345 FILLER_18_83
*346 FILLER_18_85
*347 FILLER_18_97
*348 FILLER_19_105
*349 FILLER_19_111
*350 FILLER_19_113
*351 FILLER_19_125
*352 FILLER_19_137
*353 FILLER_19_149
*354 FILLER_19_161
*355 FILLER_19_167
*356 FILLER_19_169
*357 FILLER_19_181
*358 FILLER_19_19
*359 FILLER_19_193
*360 FILLER_19_205
*361 FILLER_19_217
*362 FILLER_19_223
*363 FILLER_19_225
*364 FILLER_19_237
*365 FILLER_19_249
*366 FILLER_19_261
*367 FILLER_19_273
*368 FILLER_19_279
*369 FILLER_19_281
*370 FILLER_19_293
*371 FILLER_19_31
*372 FILLER_19_43
*373 FILLER_19_55
*374 FILLER_19_57
*375 FILLER_19_69
*376 FILLER_19_7
*377 FILLER_19_81
*378 FILLER_19_93
*379 FILLER_1_105
*380 FILLER_1_111
*381 FILLER_1_113
*382 FILLER_1_125
*383 FILLER_1_137
*384 FILLER_1_149
*385 FILLER_1_15
*386 FILLER_1_161
*387 FILLER_1_167
*388 FILLER_1_169
*389 FILLER_1_181
*390 FILLER_1_193
*391 FILLER_1_205
*392 FILLER_1_217
*393 FILLER_1_223
*394 FILLER_1_225
*395 FILLER_1_237
*396 FILLER_1_249
*397 FILLER_1_261
*398 FILLER_1_27
*399 FILLER_1_273
*400 FILLER_1_279
*401 FILLER_1_281
*402 FILLER_1_293
*403 FILLER_1_3
*404 FILLER_1_39
*405 FILLER_1_51
*406 FILLER_1_55
*407 FILLER_1_57
*408 FILLER_1_69
*409 FILLER_1_81
*410 FILLER_1_93
*411 FILLER_20_10
*412 FILLER_20_109
*413 FILLER_20_121
*414 FILLER_20_133
*415 FILLER_20_139
*416 FILLER_20_141
*417 FILLER_20_153
*418 FILLER_20_165
*419 FILLER_20_17
*420 FILLER_20_177
*421 FILLER_20_189
*422 FILLER_20_195
*423 FILLER_20_197
*424 FILLER_20_209
*425 FILLER_20_221
*426 FILLER_20_233
*427 FILLER_20_245
*428 FILLER_20_25
*429 FILLER_20_251
*430 FILLER_20_253
*431 FILLER_20_265
*432 FILLER_20_277
*433 FILLER_20_289
*434 FILLER_20_29
*435 FILLER_20_297
*436 FILLER_20_41
*437 FILLER_20_53
*438 FILLER_20_65
*439 FILLER_20_77
*440 FILLER_20_83
*441 FILLER_20_85
*442 FILLER_20_97
*443 FILLER_21_105
*444 FILLER_21_111
*445 FILLER_21_113
*446 FILLER_21_12
*447 FILLER_21_125
*448 FILLER_21_137
*449 FILLER_21_149
*450 FILLER_21_161
*451 FILLER_21_167
*452 FILLER_21_169
*453 FILLER_21_181
*454 FILLER_21_193
*455 FILLER_21_205
*456 FILLER_21_217
*457 FILLER_21_223
*458 FILLER_21_225
*459 FILLER_21_237
*460 FILLER_21_24
*461 FILLER_21_249
*462 FILLER_21_261
*463 FILLER_21_273
*464 FILLER_21_279
*465 FILLER_21_281
*466 FILLER_21_293
*467 FILLER_21_36
*468 FILLER_21_48
*469 FILLER_21_57
*470 FILLER_21_69
*471 FILLER_21_81
*472 FILLER_21_93
*473 FILLER_22_109
*474 FILLER_22_121
*475 FILLER_22_133
*476 FILLER_22_139
*477 FILLER_22_141
*478 FILLER_22_153
*479 FILLER_22_165
*480 FILLER_22_177
*481 FILLER_22_18
*482 FILLER_22_189
*483 FILLER_22_195
*484 FILLER_22_197
*485 FILLER_22_209
*486 FILLER_22_221
*487 FILLER_22_233
*488 FILLER_22_245
*489 FILLER_22_251
*490 FILLER_22_253
*491 FILLER_22_26
*492 FILLER_22_265
*493 FILLER_22_277
*494 FILLER_22_289
*495 FILLER_22_29
*496 FILLER_22_297
*497 FILLER_22_41
*498 FILLER_22_53
*499 FILLER_22_6
*500 FILLER_22_65
*501 FILLER_22_77
*502 FILLER_22_83
*503 FILLER_22_85
*504 FILLER_22_97
*505 FILLER_23_10
*506 FILLER_23_105
*507 FILLER_23_111
*508 FILLER_23_113
*509 FILLER_23_125
*510 FILLER_23_137
*511 FILLER_23_149
*512 FILLER_23_161
*513 FILLER_23_167
*514 FILLER_23_169
*515 FILLER_23_181
*516 FILLER_23_193
*517 FILLER_23_205
*518 FILLER_23_217
*519 FILLER_23_22
*520 FILLER_23_223
*521 FILLER_23_225
*522 FILLER_23_237
*523 FILLER_23_249
*524 FILLER_23_261
*525 FILLER_23_273
*526 FILLER_23_279
*527 FILLER_23_281
*528 FILLER_23_293
*529 FILLER_23_34
*530 FILLER_23_46
*531 FILLER_23_54
*532 FILLER_23_57
*533 FILLER_23_69
*534 FILLER_23_81
*535 FILLER_23_93
*536 FILLER_24_109
*537 FILLER_24_121
*538 FILLER_24_133
*539 FILLER_24_139
*540 FILLER_24_141
*541 FILLER_24_153
*542 FILLER_24_165
*543 FILLER_24_177
*544 FILLER_24_18
*545 FILLER_24_189
*546 FILLER_24_195
*547 FILLER_24_197
*548 FILLER_24_209
*549 FILLER_24_221
*550 FILLER_24_233
*551 FILLER_24_245
*552 FILLER_24_251
*553 FILLER_24_253
*554 FILLER_24_26
*555 FILLER_24_265
*556 FILLER_24_277
*557 FILLER_24_289
*558 FILLER_24_29
*559 FILLER_24_297
*560 FILLER_24_41
*561 FILLER_24_53
*562 FILLER_24_6
*563 FILLER_24_65
*564 FILLER_24_77
*565 FILLER_24_83
*566 FILLER_24_85
*567 FILLER_24_97
*568 FILLER_25_105
*569 FILLER_25_111
*570 FILLER_25_113
*571 FILLER_25_125
*572 FILLER_25_137
*573 FILLER_25_149
*574 FILLER_25_15
*575 FILLER_25_161
*576 FILLER_25_167
*577 FILLER_25_169
*578 FILLER_25_181
*579 FILLER_25_193
*580 FILLER_25_205
*581 FILLER_25_217
*582 FILLER_25_223
*583 FILLER_25_225
*584 FILLER_25_237
*585 FILLER_25_249
*586 FILLER_25_261
*587 FILLER_25_27
*588 FILLER_25_273
*589 FILLER_25_279
*590 FILLER_25_281
*591 FILLER_25_293
*592 FILLER_25_3
*593 FILLER_25_39
*594 FILLER_25_51
*595 FILLER_25_55
*596 FILLER_25_57
*597 FILLER_25_69
*598 FILLER_25_81
*599 FILLER_25_93
*600 FILLER_26_109
*601 FILLER_26_121
*602 FILLER_26_133
*603 FILLER_26_139
*604 FILLER_26_141
*605 FILLER_26_153
*606 FILLER_26_165
*607 FILLER_26_177
*608 FILLER_26_189
*609 FILLER_26_19
*610 FILLER_26_195
*611 FILLER_26_197
*612 FILLER_26_209
*613 FILLER_26_221
*614 FILLER_26_233
*615 FILLER_26_245
*616 FILLER_26_251
*617 FILLER_26_253
*618 FILLER_26_265
*619 FILLER_26_27
*620 FILLER_26_277
*621 FILLER_26_289
*622 FILLER_26_29
*623 FILLER_26_297
*624 FILLER_26_41
*625 FILLER_26_53
*626 FILLER_26_65
*627 FILLER_26_7
*628 FILLER_26_77
*629 FILLER_26_83
*630 FILLER_26_85
*631 FILLER_26_97
*632 FILLER_27_105
*633 FILLER_27_111
*634 FILLER_27_113
*635 FILLER_27_125
*636 FILLER_27_137
*637 FILLER_27_149
*638 FILLER_27_161
*639 FILLER_27_167
*640 FILLER_27_169
*641 FILLER_27_18
*642 FILLER_27_181
*643 FILLER_27_193
*644 FILLER_27_205
*645 FILLER_27_217
*646 FILLER_27_223
*647 FILLER_27_225
*648 FILLER_27_237
*649 FILLER_27_249
*650 FILLER_27_261
*651 FILLER_27_273
*652 FILLER_27_279
*653 FILLER_27_281
*654 FILLER_27_293
*655 FILLER_27_30
*656 FILLER_27_42
*657 FILLER_27_54
*658 FILLER_27_57
*659 FILLER_27_6
*660 FILLER_27_69
*661 FILLER_27_81
*662 FILLER_27_93
*663 FILLER_28_109
*664 FILLER_28_121
*665 FILLER_28_133
*666 FILLER_28_139
*667 FILLER_28_141
*668 FILLER_28_15
*669 FILLER_28_153
*670 FILLER_28_165
*671 FILLER_28_177
*672 FILLER_28_189
*673 FILLER_28_195
*674 FILLER_28_197
*675 FILLER_28_209
*676 FILLER_28_221
*677 FILLER_28_233
*678 FILLER_28_245
*679 FILLER_28_251
*680 FILLER_28_253
*681 FILLER_28_265
*682 FILLER_28_27
*683 FILLER_28_277
*684 FILLER_28_289
*685 FILLER_28_29
*686 FILLER_28_297
*687 FILLER_28_3
*688 FILLER_28_41
*689 FILLER_28_53
*690 FILLER_28_65
*691 FILLER_28_77
*692 FILLER_28_83
*693 FILLER_28_85
*694 FILLER_28_97
*695 FILLER_29_105
*696 FILLER_29_111
*697 FILLER_29_113
*698 FILLER_29_125
*699 FILLER_29_137
*700 FILLER_29_149
*701 FILLER_29_15
*702 FILLER_29_161
*703 FILLER_29_167
*704 FILLER_29_169
*705 FILLER_29_181
*706 FILLER_29_193
*707 FILLER_29_205
*708 FILLER_29_217
*709 FILLER_29_223
*710 FILLER_29_225
*711 FILLER_29_237
*712 FILLER_29_249
*713 FILLER_29_261
*714 FILLER_29_27
*715 FILLER_29_273
*716 FILLER_29_279
*717 FILLER_29_281
*718 FILLER_29_293
*719 FILLER_29_3
*720 FILLER_29_39
*721 FILLER_29_51
*722 FILLER_29_55
*723 FILLER_29_57
*724 FILLER_29_69
*725 FILLER_29_81
*726 FILLER_29_93
*727 FILLER_2_109
*728 FILLER_2_121
*729 FILLER_2_133
*730 FILLER_2_139
*731 FILLER_2_141
*732 FILLER_2_15
*733 FILLER_2_153
*734 FILLER_2_165
*735 FILLER_2_177
*736 FILLER_2_189
*737 FILLER_2_195
*738 FILLER_2_197
*739 FILLER_2_209
*740 FILLER_2_221
*741 FILLER_2_233
*742 FILLER_2_245
*743 FILLER_2_251
*744 FILLER_2_253
*745 FILLER_2_265
*746 FILLER_2_27
*747 FILLER_2_277
*748 FILLER_2_289
*749 FILLER_2_29
*750 FILLER_2_297
*751 FILLER_2_3
*752 FILLER_2_41
*753 FILLER_2_53
*754 FILLER_2_65
*755 FILLER_2_77
*756 FILLER_2_83
*757 FILLER_2_85
*758 FILLER_2_97
*759 FILLER_30_109
*760 FILLER_30_121
*761 FILLER_30_133
*762 FILLER_30_139
*763 FILLER_30_141
*764 FILLER_30_15
*765 FILLER_30_153
*766 FILLER_30_165
*767 FILLER_30_177
*768 FILLER_30_189
*769 FILLER_30_195
*770 FILLER_30_197
*771 FILLER_30_209
*772 FILLER_30_221
*773 FILLER_30_233
*774 FILLER_30_245
*775 FILLER_30_251
*776 FILLER_30_253
*777 FILLER_30_265
*778 FILLER_30_27
*779 FILLER_30_277
*780 FILLER_30_289
*781 FILLER_30_29
*782 FILLER_30_297
*783 FILLER_30_3
*784 FILLER_30_41
*785 FILLER_30_53
*786 FILLER_30_65
*787 FILLER_30_77
*788 FILLER_30_83
*789 FILLER_30_85
*790 FILLER_30_97
*791 FILLER_31_105
*792 FILLER_31_111
*793 FILLER_31_113
*794 FILLER_31_125
*795 FILLER_31_137
*796 FILLER_31_149
*797 FILLER_31_15
*798 FILLER_31_161
*799 FILLER_31_167
*800 FILLER_31_169
*801 FILLER_31_181
*802 FILLER_31_193
*803 FILLER_31_205
*804 FILLER_31_217
*805 FILLER_31_223
*806 FILLER_31_225
*807 FILLER_31_237
*808 FILLER_31_249
*809 FILLER_31_261
*810 FILLER_31_27
*811 FILLER_31_273
*812 FILLER_31_279
*813 FILLER_31_281
*814 FILLER_31_293
*815 FILLER_31_3
*816 FILLER_31_39
*817 FILLER_31_51
*818 FILLER_31_55
*819 FILLER_31_57
*820 FILLER_31_69
*821 FILLER_31_81
*822 FILLER_31_93
*823 FILLER_32_109
*824 FILLER_32_121
*825 FILLER_32_133
*826 FILLER_32_139
*827 FILLER_32_141
*828 FILLER_32_15
*829 FILLER_32_153
*830 FILLER_32_165
*831 FILLER_32_177
*832 FILLER_32_189
*833 FILLER_32_195
*834 FILLER_32_197
*835 FILLER_32_209
*836 FILLER_32_221
*837 FILLER_32_233
*838 FILLER_32_245
*839 FILLER_32_251
*840 FILLER_32_253
*841 FILLER_32_265
*842 FILLER_32_27
*843 FILLER_32_277
*844 FILLER_32_289
*845 FILLER_32_29
*846 FILLER_32_297
*847 FILLER_32_3
*848 FILLER_32_41
*849 FILLER_32_53
*850 FILLER_32_65
*851 FILLER_32_77
*852 FILLER_32_83
*853 FILLER_32_85
*854 FILLER_32_97
*855 FILLER_33_105
*856 FILLER_33_111
*857 FILLER_33_113
*858 FILLER_33_125
*859 FILLER_33_137
*860 FILLER_33_149
*861 FILLER_33_15
*862 FILLER_33_161
*863 FILLER_33_167
*864 FILLER_33_169
*865 FILLER_33_181
*866 FILLER_33_193
*867 FILLER_33_205
*868 FILLER_33_217
*869 FILLER_33_223
*870 FILLER_33_225
*871 FILLER_33_237
*872 FILLER_33_249
*873 FILLER_33_261
*874 FILLER_33_27
*875 FILLER_33_273
*876 FILLER_33_279
*877 FILLER_33_281
*878 FILLER_33_293
*879 FILLER_33_3
*880 FILLER_33_39
*881 FILLER_33_51
*882 FILLER_33_55
*883 FILLER_33_57
*884 FILLER_33_69
*885 FILLER_33_81
*886 FILLER_33_93
*887 FILLER_34_109
*888 FILLER_34_121
*889 FILLER_34_133
*890 FILLER_34_139
*891 FILLER_34_141
*892 FILLER_34_15
*893 FILLER_34_153
*894 FILLER_34_165
*895 FILLER_34_177
*896 FILLER_34_189
*897 FILLER_34_195
*898 FILLER_34_197
*899 FILLER_34_209
*900 FILLER_34_221
*901 FILLER_34_233
*902 FILLER_34_245
*903 FILLER_34_251
*904 FILLER_34_253
*905 FILLER_34_265
*906 FILLER_34_27
*907 FILLER_34_277
*908 FILLER_34_289
*909 FILLER_34_29
*910 FILLER_34_297
*911 FILLER_34_3
*912 FILLER_34_41
*913 FILLER_34_53
*914 FILLER_34_65
*915 FILLER_34_77
*916 FILLER_34_83
*917 FILLER_34_85
*918 FILLER_34_97
*919 FILLER_35_105
*920 FILLER_35_111
*921 FILLER_35_113
*922 FILLER_35_125
*923 FILLER_35_137
*924 FILLER_35_149
*925 FILLER_35_15
*926 FILLER_35_161
*927 FILLER_35_167
*928 FILLER_35_169
*929 FILLER_35_181
*930 FILLER_35_193
*931 FILLER_35_205
*932 FILLER_35_217
*933 FILLER_35_223
*934 FILLER_35_225
*935 FILLER_35_237
*936 FILLER_35_249
*937 FILLER_35_261
*938 FILLER_35_27
*939 FILLER_35_273
*940 FILLER_35_279
*941 FILLER_35_281
*942 FILLER_35_293
*943 FILLER_35_3
*944 FILLER_35_39
*945 FILLER_35_51
*946 FILLER_35_55
*947 FILLER_35_57
*948 FILLER_35_69
*949 FILLER_35_81
*950 FILLER_35_93
*951 FILLER_36_109
*952 FILLER_36_121
*953 FILLER_36_133
*954 FILLER_36_139
*955 FILLER_36_141
*956 FILLER_36_15
*957 FILLER_36_153
*958 FILLER_36_165
*959 FILLER_36_177
*960 FILLER_36_189
*961 FILLER_36_195
*962 FILLER_36_197
*963 FILLER_36_209
*964 FILLER_36_221
*965 FILLER_36_233
*966 FILLER_36_245
*967 FILLER_36_251
*968 FILLER_36_253
*969 FILLER_36_265
*970 FILLER_36_27
*971 FILLER_36_277
*972 FILLER_36_289
*973 FILLER_36_29
*974 FILLER_36_297
*975 FILLER_36_3
*976 FILLER_36_41
*977 FILLER_36_53
*978 FILLER_36_65
*979 FILLER_36_77
*980 FILLER_36_83
*981 FILLER_36_85
*982 FILLER_36_97
*983 FILLER_37_105
*984 FILLER_37_111
*985 FILLER_37_113
*986 FILLER_37_125
*987 FILLER_37_137
*988 FILLER_37_149
*989 FILLER_37_15
*990 FILLER_37_161
*991 FILLER_37_167
*992 FILLER_37_169
*993 FILLER_37_181
*994 FILLER_37_193
*995 FILLER_37_205
*996 FILLER_37_217
*997 FILLER_37_223
*998 FILLER_37_225
*999 FILLER_37_237
*1000 FILLER_37_249
*1001 FILLER_37_261
*1002 FILLER_37_27
*1003 FILLER_37_273
*1004 FILLER_37_279
*1005 FILLER_37_281
*1006 FILLER_37_293
*1007 FILLER_37_3
*1008 FILLER_37_39
*1009 FILLER_37_51
*1010 FILLER_37_55
*1011 FILLER_37_57
*1012 FILLER_37_69
*1013 FILLER_37_81
*1014 FILLER_37_93
*1015 FILLER_38_109
*1016 FILLER_38_121
*1017 FILLER_38_133
*1018 FILLER_38_139
*1019 FILLER_38_141
*1020 FILLER_38_15
*1021 FILLER_38_153
*1022 FILLER_38_165
*1023 FILLER_38_177
*1024 FILLER_38_189
*1025 FILLER_38_195
*1026 FILLER_38_197
*1027 FILLER_38_209
*1028 FILLER_38_221
*1029 FILLER_38_233
*1030 FILLER_38_245
*1031 FILLER_38_251
*1032 FILLER_38_253
*1033 FILLER_38_265
*1034 FILLER_38_27
*1035 FILLER_38_277
*1036 FILLER_38_289
*1037 FILLER_38_29
*1038 FILLER_38_297
*1039 FILLER_38_3
*1040 FILLER_38_41
*1041 FILLER_38_53
*1042 FILLER_38_65
*1043 FILLER_38_77
*1044 FILLER_38_83
*1045 FILLER_38_85
*1046 FILLER_38_97
*1047 FILLER_39_105
*1048 FILLER_39_111
*1049 FILLER_39_113
*1050 FILLER_39_125
*1051 FILLER_39_137
*1052 FILLER_39_149
*1053 FILLER_39_161
*1054 FILLER_39_167
*1055 FILLER_39_169
*1056 FILLER_39_18
*1057 FILLER_39_181
*1058 FILLER_39_193
*1059 FILLER_39_205
*1060 FILLER_39_217
*1061 FILLER_39_223
*1062 FILLER_39_225
*1063 FILLER_39_237
*1064 FILLER_39_249
*1065 FILLER_39_261
*1066 FILLER_39_273
*1067 FILLER_39_279
*1068 FILLER_39_281
*1069 FILLER_39_293
*1070 FILLER_39_30
*1071 FILLER_39_42
*1072 FILLER_39_54
*1073 FILLER_39_57
*1074 FILLER_39_6
*1075 FILLER_39_69
*1076 FILLER_39_81
*1077 FILLER_39_93
*1078 FILLER_3_105
*1079 FILLER_3_111
*1080 FILLER_3_113
*1081 FILLER_3_125
*1082 FILLER_3_137
*1083 FILLER_3_149
*1084 FILLER_3_15
*1085 FILLER_3_161
*1086 FILLER_3_167
*1087 FILLER_3_169
*1088 FILLER_3_181
*1089 FILLER_3_193
*1090 FILLER_3_205
*1091 FILLER_3_217
*1092 FILLER_3_223
*1093 FILLER_3_225
*1094 FILLER_3_237
*1095 FILLER_3_249
*1096 FILLER_3_261
*1097 FILLER_3_27
*1098 FILLER_3_273
*1099 FILLER_3_279
*1100 FILLER_3_281
*1101 FILLER_3_293
*1102 FILLER_3_3
*1103 FILLER_3_39
*1104 FILLER_3_51
*1105 FILLER_3_55
*1106 FILLER_3_57
*1107 FILLER_3_69
*1108 FILLER_3_81
*1109 FILLER_3_93
*1110 FILLER_40_109
*1111 FILLER_40_121
*1112 FILLER_40_133
*1113 FILLER_40_139
*1114 FILLER_40_141
*1115 FILLER_40_15
*1116 FILLER_40_153
*1117 FILLER_40_165
*1118 FILLER_40_177
*1119 FILLER_40_189
*1120 FILLER_40_195
*1121 FILLER_40_197
*1122 FILLER_40_209
*1123 FILLER_40_221
*1124 FILLER_40_233
*1125 FILLER_40_245
*1126 FILLER_40_251
*1127 FILLER_40_253
*1128 FILLER_40_265
*1129 FILLER_40_27
*1130 FILLER_40_277
*1131 FILLER_40_289
*1132 FILLER_40_29
*1133 FILLER_40_297
*1134 FILLER_40_3
*1135 FILLER_40_41
*1136 FILLER_40_53
*1137 FILLER_40_65
*1138 FILLER_40_77
*1139 FILLER_40_83
*1140 FILLER_40_85
*1141 FILLER_40_97
*1142 FILLER_41_105
*1143 FILLER_41_111
*1144 FILLER_41_113
*1145 FILLER_41_125
*1146 FILLER_41_137
*1147 FILLER_41_149
*1148 FILLER_41_15
*1149 FILLER_41_161
*1150 FILLER_41_167
*1151 FILLER_41_169
*1152 FILLER_41_181
*1153 FILLER_41_193
*1154 FILLER_41_205
*1155 FILLER_41_217
*1156 FILLER_41_223
*1157 FILLER_41_225
*1158 FILLER_41_237
*1159 FILLER_41_249
*1160 FILLER_41_261
*1161 FILLER_41_27
*1162 FILLER_41_273
*1163 FILLER_41_279
*1164 FILLER_41_281
*1165 FILLER_41_293
*1166 FILLER_41_3
*1167 FILLER_41_39
*1168 FILLER_41_51
*1169 FILLER_41_55
*1170 FILLER_41_57
*1171 FILLER_41_69
*1172 FILLER_41_81
*1173 FILLER_41_93
*1174 FILLER_42_109
*1175 FILLER_42_121
*1176 FILLER_42_133
*1177 FILLER_42_139
*1178 FILLER_42_141
*1179 FILLER_42_153
*1180 FILLER_42_165
*1181 FILLER_42_177
*1182 FILLER_42_18
*1183 FILLER_42_189
*1184 FILLER_42_195
*1185 FILLER_42_197
*1186 FILLER_42_209
*1187 FILLER_42_221
*1188 FILLER_42_233
*1189 FILLER_42_245
*1190 FILLER_42_251
*1191 FILLER_42_253
*1192 FILLER_42_26
*1193 FILLER_42_265
*1194 FILLER_42_277
*1195 FILLER_42_289
*1196 FILLER_42_29
*1197 FILLER_42_297
*1198 FILLER_42_41
*1199 FILLER_42_53
*1200 FILLER_42_6
*1201 FILLER_42_65
*1202 FILLER_42_77
*1203 FILLER_42_83
*1204 FILLER_42_85
*1205 FILLER_42_97
*1206 FILLER_43_105
*1207 FILLER_43_111
*1208 FILLER_43_113
*1209 FILLER_43_125
*1210 FILLER_43_137
*1211 FILLER_43_149
*1212 FILLER_43_15
*1213 FILLER_43_161
*1214 FILLER_43_167
*1215 FILLER_43_169
*1216 FILLER_43_181
*1217 FILLER_43_193
*1218 FILLER_43_205
*1219 FILLER_43_217
*1220 FILLER_43_223
*1221 FILLER_43_225
*1222 FILLER_43_237
*1223 FILLER_43_249
*1224 FILLER_43_261
*1225 FILLER_43_27
*1226 FILLER_43_273
*1227 FILLER_43_279
*1228 FILLER_43_281
*1229 FILLER_43_293
*1230 FILLER_43_3
*1231 FILLER_43_39
*1232 FILLER_43_51
*1233 FILLER_43_55
*1234 FILLER_43_57
*1235 FILLER_43_69
*1236 FILLER_43_81
*1237 FILLER_43_93
*1238 FILLER_44_109
*1239 FILLER_44_121
*1240 FILLER_44_133
*1241 FILLER_44_139
*1242 FILLER_44_141
*1243 FILLER_44_15
*1244 FILLER_44_153
*1245 FILLER_44_165
*1246 FILLER_44_177
*1247 FILLER_44_189
*1248 FILLER_44_195
*1249 FILLER_44_197
*1250 FILLER_44_209
*1251 FILLER_44_221
*1252 FILLER_44_233
*1253 FILLER_44_245
*1254 FILLER_44_251
*1255 FILLER_44_253
*1256 FILLER_44_265
*1257 FILLER_44_27
*1258 FILLER_44_277
*1259 FILLER_44_289
*1260 FILLER_44_29
*1261 FILLER_44_297
*1262 FILLER_44_3
*1263 FILLER_44_41
*1264 FILLER_44_53
*1265 FILLER_44_65
*1266 FILLER_44_77
*1267 FILLER_44_83
*1268 FILLER_44_85
*1269 FILLER_44_97
*1270 FILLER_45_105
*1271 FILLER_45_111
*1272 FILLER_45_113
*1273 FILLER_45_125
*1274 FILLER_45_137
*1275 FILLER_45_149
*1276 FILLER_45_15
*1277 FILLER_45_161
*1278 FILLER_45_167
*1279 FILLER_45_169
*1280 FILLER_45_181
*1281 FILLER_45_193
*1282 FILLER_45_205
*1283 FILLER_45_217
*1284 FILLER_45_223
*1285 FILLER_45_225
*1286 FILLER_45_237
*1287 FILLER_45_249
*1288 FILLER_45_261
*1289 FILLER_45_27
*1290 FILLER_45_273
*1291 FILLER_45_279
*1292 FILLER_45_281
*1293 FILLER_45_293
*1294 FILLER_45_3
*1295 FILLER_45_39
*1296 FILLER_45_51
*1297 FILLER_45_55
*1298 FILLER_45_57
*1299 FILLER_45_69
*1300 FILLER_45_81
*1301 FILLER_45_93
*1302 FILLER_46_109
*1303 FILLER_46_121
*1304 FILLER_46_133
*1305 FILLER_46_139
*1306 FILLER_46_141
*1307 FILLER_46_153
*1308 FILLER_46_165
*1309 FILLER_46_177
*1310 FILLER_46_18
*1311 FILLER_46_189
*1312 FILLER_46_195
*1313 FILLER_46_197
*1314 FILLER_46_209
*1315 FILLER_46_221
*1316 FILLER_46_233
*1317 FILLER_46_245
*1318 FILLER_46_251
*1319 FILLER_46_253
*1320 FILLER_46_26
*1321 FILLER_46_265
*1322 FILLER_46_277
*1323 FILLER_46_289
*1324 FILLER_46_29
*1325 FILLER_46_297
*1326 FILLER_46_41
*1327 FILLER_46_53
*1328 FILLER_46_6
*1329 FILLER_46_65
*1330 FILLER_46_77
*1331 FILLER_46_83
*1332 FILLER_46_85
*1333 FILLER_46_97
*1334 FILLER_47_105
*1335 FILLER_47_111
*1336 FILLER_47_113
*1337 FILLER_47_125
*1338 FILLER_47_137
*1339 FILLER_47_149
*1340 FILLER_47_15
*1341 FILLER_47_161
*1342 FILLER_47_167
*1343 FILLER_47_169
*1344 FILLER_47_181
*1345 FILLER_47_193
*1346 FILLER_47_205
*1347 FILLER_47_217
*1348 FILLER_47_223
*1349 FILLER_47_225
*1350 FILLER_47_237
*1351 FILLER_47_249
*1352 FILLER_47_261
*1353 FILLER_47_27
*1354 FILLER_47_273
*1355 FILLER_47_279
*1356 FILLER_47_281
*1357 FILLER_47_293
*1358 FILLER_47_3
*1359 FILLER_47_39
*1360 FILLER_47_51
*1361 FILLER_47_55
*1362 FILLER_47_57
*1363 FILLER_47_69
*1364 FILLER_47_81
*1365 FILLER_47_93
*1366 FILLER_48_109
*1367 FILLER_48_121
*1368 FILLER_48_133
*1369 FILLER_48_139
*1370 FILLER_48_141
*1371 FILLER_48_15
*1372 FILLER_48_153
*1373 FILLER_48_165
*1374 FILLER_48_177
*1375 FILLER_48_189
*1376 FILLER_48_195
*1377 FILLER_48_197
*1378 FILLER_48_209
*1379 FILLER_48_221
*1380 FILLER_48_233
*1381 FILLER_48_245
*1382 FILLER_48_251
*1383 FILLER_48_253
*1384 FILLER_48_265
*1385 FILLER_48_27
*1386 FILLER_48_277
*1387 FILLER_48_289
*1388 FILLER_48_29
*1389 FILLER_48_297
*1390 FILLER_48_3
*1391 FILLER_48_41
*1392 FILLER_48_53
*1393 FILLER_48_65
*1394 FILLER_48_77
*1395 FILLER_48_83
*1396 FILLER_48_85
*1397 FILLER_48_97
*1398 FILLER_49_105
*1399 FILLER_49_111
*1400 FILLER_49_113
*1401 FILLER_49_125
*1402 FILLER_49_137
*1403 FILLER_49_149
*1404 FILLER_49_15
*1405 FILLER_49_161
*1406 FILLER_49_167
*1407 FILLER_49_169
*1408 FILLER_49_181
*1409 FILLER_49_193
*1410 FILLER_49_205
*1411 FILLER_49_217
*1412 FILLER_49_223
*1413 FILLER_49_225
*1414 FILLER_49_237
*1415 FILLER_49_249
*1416 FILLER_49_261
*1417 FILLER_49_27
*1418 FILLER_49_273
*1419 FILLER_49_279
*1420 FILLER_49_281
*1421 FILLER_49_293
*1422 FILLER_49_3
*1423 FILLER_49_39
*1424 FILLER_49_51
*1425 FILLER_49_55
*1426 FILLER_49_57
*1427 FILLER_49_69
*1428 FILLER_49_81
*1429 FILLER_49_93
*1430 FILLER_4_109
*1431 FILLER_4_121
*1432 FILLER_4_133
*1433 FILLER_4_139
*1434 FILLER_4_141
*1435 FILLER_4_15
*1436 FILLER_4_153
*1437 FILLER_4_165
*1438 FILLER_4_177
*1439 FILLER_4_189
*1440 FILLER_4_195
*1441 FILLER_4_197
*1442 FILLER_4_209
*1443 FILLER_4_221
*1444 FILLER_4_233
*1445 FILLER_4_245
*1446 FILLER_4_251
*1447 FILLER_4_253
*1448 FILLER_4_265
*1449 FILLER_4_27
*1450 FILLER_4_277
*1451 FILLER_4_289
*1452 FILLER_4_29
*1453 FILLER_4_297
*1454 FILLER_4_3
*1455 FILLER_4_41
*1456 FILLER_4_53
*1457 FILLER_4_65
*1458 FILLER_4_77
*1459 FILLER_4_83
*1460 FILLER_4_85
*1461 FILLER_4_97
*1462 FILLER_50_109
*1463 FILLER_50_121
*1464 FILLER_50_133
*1465 FILLER_50_139
*1466 FILLER_50_141
*1467 FILLER_50_153
*1468 FILLER_50_165
*1469 FILLER_50_177
*1470 FILLER_50_18
*1471 FILLER_50_189
*1472 FILLER_50_195
*1473 FILLER_50_197
*1474 FILLER_50_209
*1475 FILLER_50_221
*1476 FILLER_50_233
*1477 FILLER_50_245
*1478 FILLER_50_251
*1479 FILLER_50_253
*1480 FILLER_50_26
*1481 FILLER_50_265
*1482 FILLER_50_277
*1483 FILLER_50_289
*1484 FILLER_50_29
*1485 FILLER_50_297
*1486 FILLER_50_41
*1487 FILLER_50_53
*1488 FILLER_50_6
*1489 FILLER_50_65
*1490 FILLER_50_77
*1491 FILLER_50_83
*1492 FILLER_50_85
*1493 FILLER_50_97
*1494 FILLER_51_105
*1495 FILLER_51_111
*1496 FILLER_51_113
*1497 FILLER_51_125
*1498 FILLER_51_137
*1499 FILLER_51_149
*1500 FILLER_51_15
*1501 FILLER_51_161
*1502 FILLER_51_167
*1503 FILLER_51_169
*1504 FILLER_51_181
*1505 FILLER_51_193
*1506 FILLER_51_205
*1507 FILLER_51_217
*1508 FILLER_51_223
*1509 FILLER_51_225
*1510 FILLER_51_237
*1511 FILLER_51_249
*1512 FILLER_51_261
*1513 FILLER_51_27
*1514 FILLER_51_273
*1515 FILLER_51_279
*1516 FILLER_51_281
*1517 FILLER_51_293
*1518 FILLER_51_3
*1519 FILLER_51_39
*1520 FILLER_51_51
*1521 FILLER_51_55
*1522 FILLER_51_57
*1523 FILLER_51_69
*1524 FILLER_51_81
*1525 FILLER_51_93
*1526 FILLER_52_109
*1527 FILLER_52_121
*1528 FILLER_52_133
*1529 FILLER_52_139
*1530 FILLER_52_141
*1531 FILLER_52_15
*1532 FILLER_52_153
*1533 FILLER_52_165
*1534 FILLER_52_177
*1535 FILLER_52_189
*1536 FILLER_52_195
*1537 FILLER_52_197
*1538 FILLER_52_209
*1539 FILLER_52_221
*1540 FILLER_52_233
*1541 FILLER_52_245
*1542 FILLER_52_251
*1543 FILLER_52_253
*1544 FILLER_52_265
*1545 FILLER_52_27
*1546 FILLER_52_277
*1547 FILLER_52_289
*1548 FILLER_52_29
*1549 FILLER_52_297
*1550 FILLER_52_3
*1551 FILLER_52_41
*1552 FILLER_52_53
*1553 FILLER_52_65
*1554 FILLER_52_77
*1555 FILLER_52_83
*1556 FILLER_52_85
*1557 FILLER_52_97
*1558 FILLER_53_105
*1559 FILLER_53_111
*1560 FILLER_53_113
*1561 FILLER_53_125
*1562 FILLER_53_137
*1563 FILLER_53_149
*1564 FILLER_53_15
*1565 FILLER_53_161
*1566 FILLER_53_167
*1567 FILLER_53_169
*1568 FILLER_53_181
*1569 FILLER_53_193
*1570 FILLER_53_205
*1571 FILLER_53_217
*1572 FILLER_53_223
*1573 FILLER_53_225
*1574 FILLER_53_237
*1575 FILLER_53_249
*1576 FILLER_53_261
*1577 FILLER_53_27
*1578 FILLER_53_273
*1579 FILLER_53_279
*1580 FILLER_53_281
*1581 FILLER_53_293
*1582 FILLER_53_3
*1583 FILLER_53_39
*1584 FILLER_53_51
*1585 FILLER_53_55
*1586 FILLER_53_57
*1587 FILLER_53_69