*SPEF "ieee 1481-1999"
*DESIGN "user_module_349228308755382868"
*DATE "11:11:11 Fri 11 11, 1111"
*VENDOR "OpenRCX"
*PROGRAM "Parallel Extraction"
*VERSION "1.0"
*DESIGN_FLOW "NAME_SCOPE LOCAL" "PIN_CAP NONE"
*DIVIDER /
*DELIMITER :
*BUS_DELIMITER []
*T_UNIT 1 NS
*C_UNIT 1 PF
*R_UNIT 1 OHM
*L_UNIT 1 HENRY

*NAME_MAP
*1 io_in[0]
*2 io_in[1]
*3 io_in[2]
*4 io_in[3]
*5 io_in[4]
*6 io_in[5]
*7 io_in[6]
*8 io_in[7]
*9 io_out[0]
*10 io_out[1]
*11 io_out[2]
*12 io_out[3]
*13 io_out[4]
*14 io_out[5]
*15 io_out[6]
*16 io_out[7]
*19 _008_
*20 _009_
*21 _010_
*22 _011_
*23 _012_
*24 _013_
*25 _014_
*26 _015_
*27 _016_
*28 _017_
*29 _018_
*30 _019_
*31 _020_
*32 _021_
*33 _022_
*34 _023_
*35 _024_
*36 _025_
*37 _026_
*38 _027_
*39 _028_
*40 _029_
*41 _030_
*42 _031_
*43 _032_
*44 _033_
*45 _034_
*46 _035_
*47 _036_
*48 _037_
*49 _038_
*50 _039_
*51 _040_
*52 _041_
*53 _042_
*54 _043_
*55 _044_
*56 _045_
*57 _046_
*58 _047_
*59 _048_
*60 _049_
*61 _050_
*62 _051_
*63 _052_
*64 _053_
*65 _054_
*66 _055_
*67 _056_
*68 _057_
*69 _058_
*70 _059_
*71 _060_
*72 _061_
*73 _062_
*74 _063_
*75 _064_
*76 _065_
*77 _066_
*78 _067_
*79 _068_
*80 _069_
*81 _070_
*82 _071_
*83 _072_
*84 _073_
*85 _074_
*86 _075_
*87 _076_
*88 _077_
*89 _078_
*90 _079_
*91 _080_
*92 _081_
*93 _082_
*94 _083_
*95 _084_
*96 _085_
*97 _086_
*98 _087_
*99 _088_
*100 _089_
*101 _090_
*102 _091_
*103 _092_
*104 _093_
*105 _094_
*106 _095_
*107 _096_
*108 _097_
*109 _098_
*110 _099_
*111 _100_
*112 _101_
*113 and1\.out
*114 clknet_0__083_
*115 clknet_0_io_in[0]
*116 clknet_1_0__leaf__083_
*117 clknet_1_1__leaf__083_
*118 clknet_2_0__leaf_io_in[0]
*119 clknet_2_1__leaf_io_in[0]
*120 clknet_2_2__leaf_io_in[0]
*121 clknet_2_3__leaf_io_in[0]
*122 flipflop1\.q
*123 flop1\.d
*124 flop1\.q
*125 flop10\.notq
*126 flop10\.q
*127 flop11\.q
*128 flop12\.q
*129 flop13\.q
*130 flop14\.q
*131 flop15\.q
*132 flop16\.q
*133 flop17\.q
*134 flop18\.q
*135 flop19\.q
*136 flop2\.d
*137 flop2\.q
*138 flop20\.q
*139 flop21\.q
*140 flop22\.q
*141 flop23\.q
*142 flop24\.q
*143 flop25\.q
*144 flop26\.q
*145 flop27\.q
*146 flop28\.q
*147 flop29\.q
*148 flop3\.d
*149 flop3\.q
*150 flop30\.q
*151 flop31\.d
*152 flop31\.q
*153 flop32\.d
*154 flop32\.q
*155 flop33\.d
*156 flop33\.q
*157 flop34\.d
*158 flop34\.q
*159 flop35\.d
*160 flop35\.q
*161 flop36\.d
*162 flop36\.q
*163 flop37\.d
*164 flop37\.q
*165 flop38\.d
*166 flop38\.q
*167 flop39\.d
*168 flop39\.q
*169 flop4\.d
*170 flop4\.q
*171 flop40\.d
*172 flop40\.q
*173 flop41\.d
*174 flop41\.q
*175 flop42\.d
*176 flop42\.q
*177 flop43\.d
*178 flop43\.q
*179 flop44\.d
*180 flop44\.q
*181 flop45\.d
*182 flop45\.q
*183 flop46\.d
*184 flop46\.q
*185 flop47\.d
*186 flop47\.q
*187 flop5\.d
*188 flop5\.q
*189 flop6\.d
*190 flop6\.q
*191 flop7\.q
*192 flop8\.q
*193 flop9\.q
*194 net1
*195 net10
*196 net11
*197 net12
*198 net13
*199 net14
*200 net15
*201 net2
*202 net3
*203 net4
*204 net5
*205 net6
*206 net7
*207 net8
*208 net9
*209 FILLER_0_109
*210 FILLER_0_113
*211 FILLER_0_125
*212 FILLER_0_137
*213 FILLER_0_141
*214 FILLER_0_15
*215 FILLER_0_153
*216 FILLER_0_165
*217 FILLER_0_169
*218 FILLER_0_181
*219 FILLER_0_193
*220 FILLER_0_197
*221 FILLER_0_209
*222 FILLER_0_221
*223 FILLER_0_225
*224 FILLER_0_237
*225 FILLER_0_249
*226 FILLER_0_253
*227 FILLER_0_265
*228 FILLER_0_27
*229 FILLER_0_277
*230 FILLER_0_281
*231 FILLER_0_29
*232 FILLER_0_293
*233 FILLER_0_3
*234 FILLER_0_41
*235 FILLER_0_53
*236 FILLER_0_57
*237 FILLER_0_69
*238 FILLER_0_81
*239 FILLER_0_85
*240 FILLER_0_97
*241 FILLER_10_109
*242 FILLER_10_121
*243 FILLER_10_133
*244 FILLER_10_139
*245 FILLER_10_141
*246 FILLER_10_153
*247 FILLER_10_165
*248 FILLER_10_177
*249 FILLER_10_189
*250 FILLER_10_19
*251 FILLER_10_195
*252 FILLER_10_197
*253 FILLER_10_209
*254 FILLER_10_221
*255 FILLER_10_233
*256 FILLER_10_245
*257 FILLER_10_251
*258 FILLER_10_253
*259 FILLER_10_265
*260 FILLER_10_27
*261 FILLER_10_277
*262 FILLER_10_289
*263 FILLER_10_297
*264 FILLER_10_32
*265 FILLER_10_38
*266 FILLER_10_42
*267 FILLER_10_62
*268 FILLER_10_74
*269 FILLER_10_82
*270 FILLER_10_85
*271 FILLER_10_97
*272 FILLER_11_10
*273 FILLER_11_108
*274 FILLER_11_113
*275 FILLER_11_125
*276 FILLER_11_137
*277 FILLER_11_149
*278 FILLER_11_16
*279 FILLER_11_161
*280 FILLER_11_167
*281 FILLER_11_169
*282 FILLER_11_181
*283 FILLER_11_193
*284 FILLER_11_205
*285 FILLER_11_217
*286 FILLER_11_223
*287 FILLER_11_225
*288 FILLER_11_237
*289 FILLER_11_24
*290 FILLER_11_249
*291 FILLER_11_261
*292 FILLER_11_273
*293 FILLER_11_279
*294 FILLER_11_281
*295 FILLER_11_293
*296 FILLER_11_41
*297 FILLER_11_50
*298 FILLER_11_6
*299 FILLER_11_60
*300 FILLER_11_72
*301 FILLER_11_84
*302 FILLER_11_96
*303 FILLER_12_109
*304 FILLER_12_121
*305 FILLER_12_133
*306 FILLER_12_139
*307 FILLER_12_141
*308 FILLER_12_153
*309 FILLER_12_165
*310 FILLER_12_177
*311 FILLER_12_189
*312 FILLER_12_19
*313 FILLER_12_195
*314 FILLER_12_197
*315 FILLER_12_209
*316 FILLER_12_221
*317 FILLER_12_233
*318 FILLER_12_245
*319 FILLER_12_251
*320 FILLER_12_253
*321 FILLER_12_265
*322 FILLER_12_27
*323 FILLER_12_277
*324 FILLER_12_289
*325 FILLER_12_297
*326 FILLER_12_34
*327 FILLER_12_40
*328 FILLER_12_44
*329 FILLER_12_51
*330 FILLER_12_58
*331 FILLER_12_70
*332 FILLER_12_82
*333 FILLER_12_85
*334 FILLER_12_97
*335 FILLER_13_105
*336 FILLER_13_111
*337 FILLER_13_113
*338 FILLER_13_12
*339 FILLER_13_125
*340 FILLER_13_137
*341 FILLER_13_149
*342 FILLER_13_161
*343 FILLER_13_167
*344 FILLER_13_169
*345 FILLER_13_181
*346 FILLER_13_193
*347 FILLER_13_205
*348 FILLER_13_217
*349 FILLER_13_223
*350 FILLER_13_225
*351 FILLER_13_237
*352 FILLER_13_249
*353 FILLER_13_261
*354 FILLER_13_273
*355 FILLER_13_279
*356 FILLER_13_281
*357 FILLER_13_293
*358 FILLER_13_3
*359 FILLER_13_32
*360 FILLER_13_52
*361 FILLER_13_62
*362 FILLER_13_69
*363 FILLER_13_81
*364 FILLER_13_93
*365 FILLER_14_109
*366 FILLER_14_121
*367 FILLER_14_133
*368 FILLER_14_139
*369 FILLER_14_141
*370 FILLER_14_153
*371 FILLER_14_165
*372 FILLER_14_177
*373 FILLER_14_189
*374 FILLER_14_19
*375 FILLER_14_195
*376 FILLER_14_197
*377 FILLER_14_209
*378 FILLER_14_221
*379 FILLER_14_233
*380 FILLER_14_245
*381 FILLER_14_251
*382 FILLER_14_253
*383 FILLER_14_265
*384 FILLER_14_27
*385 FILLER_14_277
*386 FILLER_14_289
*387 FILLER_14_297
*388 FILLER_14_45
*389 FILLER_14_54
*390 FILLER_14_76
*391 FILLER_14_85
*392 FILLER_14_97
*393 FILLER_15_107
*394 FILLER_15_111
*395 FILLER_15_113
*396 FILLER_15_12
*397 FILLER_15_125
*398 FILLER_15_137
*399 FILLER_15_149
*400 FILLER_15_161
*401 FILLER_15_167
*402 FILLER_15_169
*403 FILLER_15_181
*404 FILLER_15_193
*405 FILLER_15_205
*406 FILLER_15_217
*407 FILLER_15_223
*408 FILLER_15_225
*409 FILLER_15_237
*410 FILLER_15_249
*411 FILLER_15_261
*412 FILLER_15_273
*413 FILLER_15_279
*414 FILLER_15_281
*415 FILLER_15_293
*416 FILLER_15_3
*417 FILLER_15_36
*418 FILLER_15_44
*419 FILLER_15_51
*420 FILLER_15_55
*421 FILLER_15_57
*422 FILLER_15_64
*423 FILLER_15_70
*424 FILLER_15_76
*425 FILLER_15_83
*426 FILLER_15_95
*427 FILLER_16_109
*428 FILLER_16_121
*429 FILLER_16_133
*430 FILLER_16_139
*431 FILLER_16_141
*432 FILLER_16_153
*433 FILLER_16_165
*434 FILLER_16_177
*435 FILLER_16_189
*436 FILLER_16_195
*437 FILLER_16_197
*438 FILLER_16_209
*439 FILLER_16_221
*440 FILLER_16_233
*441 FILLER_16_24
*442 FILLER_16_245
*443 FILLER_16_251
*444 FILLER_16_253
*445 FILLER_16_265
*446 FILLER_16_277
*447 FILLER_16_289
*448 FILLER_16_297
*449 FILLER_16_3
*450 FILLER_16_32
*451 FILLER_16_41
*452 FILLER_16_63
*453 FILLER_16_7
*454 FILLER_16_71
*455 FILLER_16_77
*456 FILLER_16_83
*457 FILLER_16_85
*458 FILLER_16_97
*459 FILLER_17_106
*460 FILLER_17_113
*461 FILLER_17_12
*462 FILLER_17_125
*463 FILLER_17_137
*464 FILLER_17_149
*465 FILLER_17_161
*466 FILLER_17_167
*467 FILLER_17_169
*468 FILLER_17_181
*469 FILLER_17_193
*470 FILLER_17_205
*471 FILLER_17_217
*472 FILLER_17_223
*473 FILLER_17_225
*474 FILLER_17_237
*475 FILLER_17_249
*476 FILLER_17_261
*477 FILLER_17_273
*478 FILLER_17_279
*479 FILLER_17_281
*480 FILLER_17_293
*481 FILLER_17_3
*482 FILLER_17_36
*483 FILLER_17_43
*484 FILLER_17_52
*485 FILLER_17_60
*486 FILLER_17_82
*487 FILLER_17_94
*488 FILLER_18_109
*489 FILLER_18_121
*490 FILLER_18_133
*491 FILLER_18_139
*492 FILLER_18_141
*493 FILLER_18_153
*494 FILLER_18_165
*495 FILLER_18_177
*496 FILLER_18_189
*497 FILLER_18_195
*498 FILLER_18_197
*499 FILLER_18_209
*500 FILLER_18_21
*501 FILLER_18_221
*502 FILLER_18_233
*503 FILLER_18_245
*504 FILLER_18_251
*505 FILLER_18_253
*506 FILLER_18_265
*507 FILLER_18_27
*508 FILLER_18_277
*509 FILLER_18_289
*510 FILLER_18_297
*511 FILLER_18_3
*512 FILLER_18_39
*513 FILLER_18_61
*514 FILLER_18_69
*515 FILLER_18_74
*516 FILLER_18_82
*517 FILLER_18_85
*518 FILLER_18_97
*519 FILLER_19_106
*520 FILLER_19_11
*521 FILLER_19_113
*522 FILLER_19_125
*523 FILLER_19_137
*524 FILLER_19_149
*525 FILLER_19_161
*526 FILLER_19_167
*527 FILLER_19_169
*528 FILLER_19_181
*529 FILLER_19_193
*530 FILLER_19_205
*531 FILLER_19_217
*532 FILLER_19_223
*533 FILLER_19_225
*534 FILLER_19_237
*535 FILLER_19_249
*536 FILLER_19_261
*537 FILLER_19_273
*538 FILLER_19_279
*539 FILLER_19_281
*540 FILLER_19_293
*541 FILLER_19_33
*542 FILLER_19_42
*543 FILLER_19_48
*544 FILLER_19_52
*545 FILLER_19_62
*546 FILLER_19_82
*547 FILLER_19_94
*548 FILLER_1_105
*549 FILLER_1_111
*550 FILLER_1_113
*551 FILLER_1_125
*552 FILLER_1_137
*553 FILLER_1_149
*554 FILLER_1_15
*555 FILLER_1_161
*556 FILLER_1_167
*557 FILLER_1_169
*558 FILLER_1_181
*559 FILLER_1_193
*560 FILLER_1_205
*561 FILLER_1_217
*562 FILLER_1_223
*563 FILLER_1_225
*564 FILLER_1_237
*565 FILLER_1_249
*566 FILLER_1_261
*567 FILLER_1_27
*568 FILLER_1_273
*569 FILLER_1_279
*570 FILLER_1_281
*571 FILLER_1_293
*572 FILLER_1_3
*573 FILLER_1_39
*574 FILLER_1_51
*575 FILLER_1_55
*576 FILLER_1_57
*577 FILLER_1_69
*578 FILLER_1_81
*579 FILLER_1_93
*580 FILLER_20_109
*581 FILLER_20_121
*582 FILLER_20_133
*583 FILLER_20_139
*584 FILLER_20_141
*585 FILLER_20_153
*586 FILLER_20_165
*587 FILLER_20_177
*588 FILLER_20_18
*589 FILLER_20_189
*590 FILLER_20_195
*591 FILLER_20_197
*592 FILLER_20_209
*593 FILLER_20_221
*594 FILLER_20_233
*595 FILLER_20_245
*596 FILLER_20_251
*597 FILLER_20_253
*598 FILLER_20_26
*599 FILLER_20_265
*600 FILLER_20_277
*601 FILLER_20_289
*602 FILLER_20_29
*603 FILLER_20_297
*604 FILLER_20_46
*605 FILLER_20_53
*606 FILLER_20_6
*607 FILLER_20_61
*608 FILLER_20_68
*609 FILLER_20_75
*610 FILLER_20_83
*611 FILLER_20_85
*612 FILLER_20_97
*613 FILLER_21_100
*614 FILLER_21_113
*615 FILLER_21_125
*616 FILLER_21_137
*617 FILLER_21_149
*618 FILLER_21_161
*619 FILLER_21_167
*620 FILLER_21_169
*621 FILLER_21_181
*622 FILLER_21_193
*623 FILLER_21_205
*624 FILLER_21_217
*625 FILLER_21_223
*626 FILLER_21_225
*627 FILLER_21_237
*628 FILLER_21_249
*629 FILLER_21_261
*630 FILLER_21_273
*631 FILLER_21_279
*632 FILLER_21_281
*633 FILLER_21_293
*634 FILLER_21_3
*635 FILLER_21_31
*636 FILLER_21_38
*637 FILLER_21_47
*638 FILLER_21_55
*639 FILLER_21_62
*640 FILLER_21_69
*641 FILLER_21_76
*642 FILLER_21_88
*643 FILLER_21_9
*644 FILLER_22_100
*645 FILLER_22_11
*646 FILLER_22_112
*647 FILLER_22_124
*648 FILLER_22_136
*649 FILLER_22_141
*650 FILLER_22_153
*651 FILLER_22_165
*652 FILLER_22_177
*653 FILLER_22_189
*654 FILLER_22_195
*655 FILLER_22_197
*656 FILLER_22_209
*657 FILLER_22_22
*658 FILLER_22_221
*659 FILLER_22_233
*660 FILLER_22_245
*661 FILLER_22_251
*662 FILLER_22_253
*663 FILLER_22_265
*664 FILLER_22_277
*665 FILLER_22_289
*666 FILLER_22_297
*667 FILLER_22_45
*668 FILLER_22_53
*669 FILLER_22_58
*670 FILLER_22_78
*671 FILLER_22_88
*672 FILLER_23_100
*673 FILLER_23_113
*674 FILLER_23_125
*675 FILLER_23_137
*676 FILLER_23_149
*677 FILLER_23_161
*678 FILLER_23_167
*679 FILLER_23_169
*680 FILLER_23_181
*681 FILLER_23_193
*682 FILLER_23_20
*683 FILLER_23_205
*684 FILLER_23_217
*685 FILLER_23_223
*686 FILLER_23_225
*687 FILLER_23_237
*688 FILLER_23_249
*689 FILLER_23_261
*690 FILLER_23_273
*691 FILLER_23_279
*692 FILLER_23_281
*693 FILLER_23_293
*694 FILLER_23_3
*695 FILLER_23_32
*696 FILLER_23_52
*697 FILLER_23_57
*698 FILLER_23_79
*699 FILLER_23_88
*700 FILLER_24_109
*701 FILLER_24_121
*702 FILLER_24_133
*703 FILLER_24_139
*704 FILLER_24_141
*705 FILLER_24_153
*706 FILLER_24_165
*707 FILLER_24_177
*708 FILLER_24_189
*709 FILLER_24_19
*710 FILLER_24_195
*711 FILLER_24_197
*712 FILLER_24_209
*713 FILLER_24_221
*714 FILLER_24_233
*715 FILLER_24_245
*716 FILLER_24_251
*717 FILLER_24_253
*718 FILLER_24_265
*719 FILLER_24_27
*720 FILLER_24_277
*721 FILLER_24_289
*722 FILLER_24_297
*723 FILLER_24_3
*724 FILLER_24_36
*725 FILLER_24_62
*726 FILLER_24_76
*727 FILLER_24_8
*728 FILLER_24_85
*729 FILLER_24_97
*730 FILLER_25_105
*731 FILLER_25_11
*732 FILLER_25_111
*733 FILLER_25_113
*734 FILLER_25_125
*735 FILLER_25_137
*736 FILLER_25_149
*737 FILLER_25_161
*738 FILLER_25_167
*739 FILLER_25_169
*740 FILLER_25_17
*741 FILLER_25_181
*742 FILLER_25_193
*743 FILLER_25_205
*744 FILLER_25_217
*745 FILLER_25_223
*746 FILLER_25_225
*747 FILLER_25_237
*748 FILLER_25_249
*749 FILLER_25_261
*750 FILLER_25_273
*751 FILLER_25_279
*752 FILLER_25_28
*753 FILLER_25_281
*754 FILLER_25_293
*755 FILLER_25_52
*756 FILLER_25_57
*757 FILLER_25_61
*758 FILLER_25_81
*759 FILLER_25_93
*760 FILLER_26_100
*761 FILLER_26_112
*762 FILLER_26_124
*763 FILLER_26_136
*764 FILLER_26_141
*765 FILLER_26_15
*766 FILLER_26_153
*767 FILLER_26_165
*768 FILLER_26_177
*769 FILLER_26_189
*770 FILLER_26_19
*771 FILLER_26_195
*772 FILLER_26_197
*773 FILLER_26_209
*774 FILLER_26_221
*775 FILLER_26_233
*776 FILLER_26_24
*777 FILLER_26_245
*778 FILLER_26_251
*779 FILLER_26_253
*780 FILLER_26_265
*781 FILLER_26_277
*782 FILLER_26_289
*783 FILLER_26_297
*784 FILLER_26_3
*785 FILLER_26_39
*786 FILLER_26_65
*787 FILLER_26_76
*788 FILLER_26_88
*789 FILLER_27_108
*790 FILLER_27_113
*791 FILLER_27_125
*792 FILLER_27_137
*793 FILLER_27_149
*794 FILLER_27_16
*795 FILLER_27_161
*796 FILLER_27_167
*797 FILLER_27_169
*798 FILLER_27_181
*799 FILLER_27_193
*800 FILLER_27_205
*801 FILLER_27_217
*802 FILLER_27_223
*803 FILLER_27_225
*804 FILLER_27_237
*805 FILLER_27_249
*806 FILLER_27_261
*807 FILLER_27_27
*808 FILLER_27_273
*809 FILLER_27_279
*810 FILLER_27_281
*811 FILLER_27_293
*812 FILLER_27_3
*813 FILLER_27_41
*814 FILLER_27_52
*815 FILLER_27_57
*816 FILLER_27_70
*817 FILLER_27_77
*818 FILLER_27_84
*819 FILLER_27_96
*820 FILLER_28_109
*821 FILLER_28_121
*822 FILLER_28_133
*823 FILLER_28_139
*824 FILLER_28_141
*825 FILLER_28_153
*826 FILLER_28_165
*827 FILLER_28_177
*828 FILLER_28_189
*829 FILLER_28_195
*830 FILLER_28_197
*831 FILLER_28_20
*832 FILLER_28_209
*833 FILLER_28_221
*834 FILLER_28_233
*835 FILLER_28_245
*836 FILLER_28_251
*837 FILLER_28_253
*838 FILLER_28_265
*839 FILLER_28_277
*840 FILLER_28_289
*841 FILLER_28_29
*842 FILLER_28_297
*843 FILLER_28_3
*844 FILLER_28_42
*845 FILLER_28_50
*846 FILLER_28_57
*847 FILLER_28_65
*848 FILLER_28_72
*849 FILLER_28_85
*850 FILLER_28_97
*851 FILLER_29_103
*852 FILLER_29_111
*853 FILLER_29_113
*854 FILLER_29_125
*855 FILLER_29_137
*856 FILLER_29_149
*857 FILLER_29_161
*858 FILLER_29_167
*859 FILLER_29_169
*860 FILLER_29_181
*861 FILLER_29_193
*862 FILLER_29_205
*863 FILLER_29_217
*864 FILLER_29_223
*865 FILLER_29_225
*866 FILLER_29_237
*867 FILLER_29_249
*868 FILLER_29_261
*869 FILLER_29_273
*870 FILLER_29_279
*871 FILLER_29_281
*872 FILLER_29_29
*873 FILLER_29_293
*874 FILLER_29_3
*875 FILLER_29_43
*876 FILLER_29_52
*877 FILLER_29_57
*878 FILLER_29_79
*879 FILLER_29_9
*880 FILLER_29_91
*881 FILLER_2_109
*882 FILLER_2_121
*883 FILLER_2_133
*884 FILLER_2_139
*885 FILLER_2_141
*886 FILLER_2_15
*887 FILLER_2_153
*888 FILLER_2_165
*889 FILLER_2_177
*890 FILLER_2_189
*891 FILLER_2_195
*892 FILLER_2_197
*893 FILLER_2_209
*894 FILLER_2_221
*895 FILLER_2_233
*896 FILLER_2_245
*897 FILLER_2_251
*898 FILLER_2_253
*899 FILLER_2_265
*900 FILLER_2_27
*901 FILLER_2_277
*902 FILLER_2_289
*903 FILLER_2_29
*904 FILLER_2_297
*905 FILLER_2_3
*906 FILLER_2_41
*907 FILLER_2_53
*908 FILLER_2_65
*909 FILLER_2_77
*910 FILLER_2_83
*911 FILLER_2_85
*912 FILLER_2_97
*913 FILLER_30_109
*914 FILLER_30_121
*915 FILLER_30_133
*916 FILLER_30_139
*917 FILLER_30_141
*918 FILLER_30_153
*919 FILLER_30_165
*920 FILLER_30_177
*921 FILLER_30_189
*922 FILLER_30_195
*923 FILLER_30_197
*924 FILLER_30_209
*925 FILLER_30_221
*926 FILLER_30_233
*927 FILLER_30_24
*928 FILLER_30_245
*929 FILLER_30_251
*930 FILLER_30_253
*931 FILLER_30_265
*932 FILLER_30_277
*933 FILLER_30_289
*934 FILLER_30_297
*935 FILLER_30_3
*936 FILLER_30_45
*937 FILLER_30_59
*938 FILLER_30_70
*939 FILLER_30_82
*940 FILLER_30_85
*941 FILLER_30_97
*942 FILLER_31_104
*943 FILLER_31_113
*944 FILLER_31_125
*945 FILLER_31_137
*946 FILLER_31_149
*947 FILLER_31_15
*948 FILLER_31_161
*949 FILLER_31_167
*950 FILLER_31_169
*951 FILLER_31_181
*952 FILLER_31_193
*953 FILLER_31_205
*954 FILLER_31_217
*955 FILLER_31_223
*956 FILLER_31_225
*957 FILLER_31_237
*958 FILLER_31_249
*959 FILLER_31_261
*960 FILLER_31_273
*961 FILLER_31_279
*962 FILLER_31_281
*963 FILLER_31_293
*964 FILLER_31_3
*965 FILLER_31_36
*966 FILLER_31_44
*967 FILLER_31_52
*968 FILLER_31_60
*969 FILLER_31_80
*970 FILLER_31_9
*971 FILLER_31_92
*972 FILLER_32_109
*973 FILLER_32_121
*974 FILLER_32_133
*975 FILLER_32_139
*976 FILLER_32_141
*977 FILLER_32_15
*978 FILLER_32_153
*979 FILLER_32_165
*980 FILLER_32_177
*981 FILLER_32_189
*982 FILLER_32_195
*983 FILLER_32_197
*984 FILLER_32_209
*985 FILLER_32_221
*986 FILLER_32_23
*987 FILLER_32_233
*988 FILLER_32_245
*989 FILLER_32_251
*990 FILLER_32_253
*991 FILLER_32_265
*992 FILLER_32_27
*993 FILLER_32_277
*994 FILLER_32_289
*995 FILLER_32_297
*996 FILLER_32_3
*997 FILLER_32_39
*998 FILLER_32_51
*999 FILLER_32_55
*1000 FILLER_32_63
*1001 FILLER_32_7
*1002 FILLER_32_70
*1003 FILLER_32_82
*1004 FILLER_32_85
*1005 FILLER_32_97
*1006 FILLER_33_108
*1007 FILLER_33_113
*1008 FILLER_33_125
*1009 FILLER_33_137
*1010 FILLER_33_149
*1011 FILLER_33_161
*1012 FILLER_33_167
*1013 FILLER_33_169
*1014 FILLER_33_181
*1015 FILLER_33_193
*1016 FILLER_33_20
*1017 FILLER_33_205
*1018 FILLER_33_217
*1019 FILLER_33_223
*1020 FILLER_33_225
*1021 FILLER_33_237
*1022 FILLER_33_249
*1023 FILLER_33_261
*1024 FILLER_33_273
*1025 FILLER_33_279
*1026 FILLER_33_28
*1027 FILLER_33_281
*1028 FILLER_33_293
*1029 FILLER_33_3
*1030 FILLER_33_45
*1031 FILLER_33_52
*1032 FILLER_33_63
*1033 FILLER_33_72
*1034 FILLER_33_84
*1035 FILLER_33_96
*1036 FILLER_34_109
*1037 FILLER_34_121
*1038 FILLER_34_133
*1039 FILLER_34_139
*1040 FILLER_34_141
*1041 FILLER_34_153
*1042 FILLER_34_165
*1043 FILLER_34_177
*1044 FILLER_34_189
*1045 FILLER_34_195
*1046 FILLER_34_197
*1047 FILLER_34_209
*1048 FILLER_34_221
*1049 FILLER_34_233
*1050 FILLER_34_24
*1051 FILLER_34_245
*1052 FILLER_34_251
*1053 FILLER_34_253
*1054 FILLER_34_265
*1055 FILLER_34_277
*1056 FILLER_34_289
*1057 FILLER_34_297
*1058 FILLER_34_3
*1059 FILLER_34_32
*1060 FILLER_34_52
*1061 FILLER_34_7
*1062 FILLER_34_76
*1063 FILLER_34_85
*1064 FILLER_34_97
*1065 FILLER_35_105
*1066 FILLER_35_111
*1067 FILLER_35_113
*1068 FILLER_35_125
*1069 FILLER_35_137
*1070 FILLER_35_149
*1071 FILLER_35_161
*1072 FILLER_35_167
*1073 FILLER_35_169
*1074 FILLER_35_181
*1075 FILLER_35_193
*1076 FILLER_35_205
*1077 FILLER_35_217
*1078 FILLER_35_223
*1079 FILLER_35_225
*1080 FILLER_35_237
*1081 FILLER_35_249
*1082 FILLER_35_261
*1083 FILLER_35_273
*1084 FILLER_35_279
*1085 FILLER_35_281
*1086 FILLER_35_293
*1087 FILLER_35_3
*1088 FILLER_35_36
*1089 FILLER_35_45
*1090 FILLER_35_53
*1091 FILLER_35_62
*1092 FILLER_35_69
*1093 FILLER_35_8
*1094 FILLER_35_81
*1095 FILLER_35_93
*1096 FILLER_36_109
*1097 FILLER_36_121
*1098 FILLER_36_133
*1099 FILLER_36_139
*1100 FILLER_36_141
*1101 FILLER_36_153
*1102 FILLER_36_165
*1103 FILLER_36_177
*1104 FILLER_36_189
*1105 FILLER_36_195
*1106 FILLER_36_197
*1107 FILLER_36_209
*1108 FILLER_36_221
*1109 FILLER_36_23
*1110 FILLER_36_233
*1111 FILLER_36_245
*1112 FILLER_36_251
*1113 FILLER_36_253
*1114 FILLER_36_265
*1115 FILLER_36_27
*1116 FILLER_36_277
*1117 FILLER_36_289
*1118 FILLER_36_297
*1119 FILLER_36_3
*1120 FILLER_36_38
*1121 FILLER_36_46
*1122 FILLER_36_53
*1123 FILLER_36_65
*1124 FILLER_36_77
*1125 FILLER_36_83
*1126 FILLER_36_85
*1127 FILLER_36_97
*1128 FILLER_37_105
*1129 FILLER_37_111
*1130 FILLER_37_113
*1131 FILLER_37_125
*1132 FILLER_37_137
*1133 FILLER_37_149
*1134 FILLER_37_161
*1135 FILLER_37_167
*1136 FILLER_37_169
*1137 FILLER_37_181
*1138 FILLER_37_193
*1139 FILLER_37_205
*1140 FILLER_37_217
*1141 FILLER_37_223
*1142 FILLER_37_225
*1143 FILLER_37_237
*1144 FILLER_37_249
*1145 FILLER_37_261
*1146 FILLER_37_273
*1147 FILLER_37_279
*1148 FILLER_37_281
*1149 FILLER_37_293
*1150 FILLER_37_3
*1151 FILLER_37_33
*1152 FILLER_37_45
*1153 FILLER_37_53
*1154 FILLER_37_57
*1155 FILLER_37_69
*1156 FILLER_37_81
*1157 FILLER_37_9
*1158 FILLER_37_93
*1159 FILLER_38_109
*1160 FILLER_38_121
*1161 FILLER_38_133
*1162 FILLER_38_139
*1163 FILLER_38_141
*1164 FILLER_38_153
*1165 FILLER_38_16
*1166 FILLER_38_165
*1167 FILLER_38_177
*1168 FILLER_38_189
*1169 FILLER_38_195
*1170 FILLER_38_197
*1171 FILLER_38_209
*1172 FILLER_38_221
*1173 FILLER_38_23
*1174 FILLER_38_233
*1175 FILLER_38_245
*1176 FILLER_38_251
*1177 FILLER_38_253
*1178 FILLER_38_265
*1179 FILLER_38_27
*1180 FILLER_38_277
*1181 FILLER_38_289
*1182 FILLER_38_29
*1183 FILLER_38_297
*1184 FILLER_38_3
*1185 FILLER_38_41
*1186 FILLER_38_53
*1187 FILLER_38_65
*1188 FILLER_38_77
*1189 FILLER_38_83
*1190 FILLER_38_85
*1191 FILLER_38_9
*1192 FILLER_38_97
*1193 FILLER_39_105
*1194 FILLER_39_111
*1195 FILLER_39_113
*1196 FILLER_39_12
*1197 FILLER_39_125
*1198 FILLER_39_137
*1199 FILLER_39_149
*1200 FILLER_39_161
*1201 FILLER_39_167
*1202 FILLER_39_169
*1203 FILLER_39_181
*1204 FILLER_39_193
*1205 FILLER_39_205
*1206 FILLER_39_217
*1207 FILLER_39_223
*1208 FILLER_39_225
*1209 FILLER_39_237
*1210 FILLER_39_249
*1211 FILLER_39_261
*1212 FILLER_39_273
*1213 FILLER_39_279
*1214 FILLER_39_281
*1215 FILLER_39_293
*1216 FILLER_39_3
*1217 FILLER_39_32
*1218 FILLER_39_44
*1219 FILLER_39_57
*1220 FILLER_39_69
*1221 FILLER_39_81
*1222 FILLER_39_93
*1223 FILLER_3_105
*1224 FILLER_3_111
*1225 FILLER_3_113
*1226 FILLER_3_125
*1227 FILLER_3_137
*1228 FILLER_3_149
*1229 FILLER_3_161
*1230 FILLER_3_167
*1231 FILLER_3_169
*1232 FILLER_3_18
*1233 FILLER_3_181
*1234 FILLER_3_193
*1235 FILLER_3_205
*1236 FILLER_3_217
*1237 FILLER_3_223
*1238 FILLER_3_225
*1239 FILLER_3_237
*1240 FILLER_3_249
*1241 FILLER_3_261
*1242 FILLER_3_273
*1243 FILLER_3_279
*1244 FILLER_3_281
*1245 FILLER_3_293
*1246 FILLER_3_30
*1247 FILLER_3_42
*1248 FILLER_3_54
*1249 FILLER_3_57
*1250 FILLER_3_6
*1251 FILLER_3_69
*1252 FILLER_3_81
*1253 FILLER_3_93
*1254 FILLER_40_109
*1255 FILLER_40_121
*1256 FILLER_40_133
*1257 FILLER_40_139
*1258 FILLER_40_141
*1259 FILLER_40_153
*1260 FILLER_40_165
*1261 FILLER_40_177
*1262 FILLER_40_189
*1263 FILLER_40_195
*1264 FILLER_40_197
*1265 FILLER_40_20
*1266 FILLER_40_209
*1267 FILLER_40_221
*1268 FILLER_40_233
*1269 FILLER_40_245
*1270 FILLER_40_251
*1271 FILLER_40_253
*1272 FILLER_40_265
*1273 FILLER_40_277
*1274 FILLER_40_289
*1275 FILLER_40_297
*1276 FILLER_40_3
*1277 FILLER_40_38
*1278 FILLER_40_50
*1279 FILLER_40_62
*1280 FILLER_40_74
*1281 FILLER_40_82
*1282 FILLER_40_85
*1283 FILLER_40_97
*1284 FILLER_41_105
*1285 FILLER_41_111
*1286 FILLER_41_113
*1287 FILLER_41_125
*1288 FILLER_41_137
*1289 FILLER_41_149
*1290 FILLER_41_161
*1291 FILLER_41_167
*1292 FILLER_41_169
*1293 FILLER_41_181
*1294 FILLER_41_193
*1295 FILLER_41_20
*1296 FILLER_41_205
*1297 FILLER_41_217
*1298 FILLER_41_223
*1299 FILLER_41_225
*1300 FILLER_41_237
*1301 FILLER_41_249
*1302 FILLER_41_261
*1303 FILLER_41_27
*1304 FILLER_41_273
*1305 FILLER_41_279
*1306 FILLER_41_281
*1307 FILLER_41_293
*1308 FILLER_41_34
*1309 FILLER_41_46
*1310 FILLER_41_54
*1311 FILLER_41_57
*1312 FILLER_41_69
*1313 FILLER_41_7
*1314 FILLER_41_81
*1315 FILLER_41_93
*1316 FILLER_42_109
*1317 FILLER_42_11
*1318 FILLER_42_121
*1319 FILLER_42_133
*1320 FILLER_42_139
*1321 FILLER_42_141
*1322 FILLER_42_153
*1323 FILLER_42_165
*1324 FILLER_42_177
*1325 FILLER_42_189
*1326 FILLER_42_195
*1327 FILLER_42_197
*1328 FILLER_42_209
*1329 FILLER_42_221
*1330 FILLER_42_23
*1331 FILLER_42_233
*1332 FILLER_42_245
*1333 FILLER_42_251
*1334 FILLER_42_253
*1335 FILLER_42_265
*1336 FILLER_42_27
*1337 FILLER_42_277
*1338 FILLER_42_289
*1339 FILLER_42_297
*1340 FILLER_42_3
*1341 FILLER_42_33
*1342 FILLER_42_45
*1343 FILLER_42_57
*1344 FILLER_42_69
*1345 FILLER_42_7
*1346 FILLER_42_81
*1347 FILLER_42_85
*1348 FILLER_42_97
*1349 FILLER_43_105
*1350 FILLER_43_111
*1351 FILLER_43_113
*1352 FILLER_43_12
*1353 FILLER_43_125
*1354 FILLER_43_137
*1355 FILLER_43_149
*1356 FILLER_43_161
*1357 FILLER_43_167
*1358 FILLER_43_169
*1359 FILLER_43_181
*1360 FILLER_43_193
*1361 FILLER_43_205
*1362 FILLER_43_217
*1363 FILLER_43_22
*1364 FILLER_43_223
*1365 FILLER_43_225
*1366 FILLER_43_237
*1367 FILLER_43_249
*1368 FILLER_43_261
*1369 FILLER_43_273
*1370 FILLER_43_279
*1371 FILLER_43_281
*1372 FILLER_43_293
*1373 FILLER_43_34
*1374 FILLER_43_46
*1375 FILLER_43_54
*1376 FILLER_43_57
*1377 FILLER_43_6
*1378 FILLER_43_69
*1379 FILLER_43_81
*1380 FILLER_43_93
*1381 FILLER_44_109
*1382 FILLER_44_121
*1383 FILLER_44_133
*1384 FILLER_44_139
*1385 FILLER_44_141
*1386 FILLER_44_153
*1387 FILLER_44_165
*1388 FILLER_44_177
*1389 FILLER_44_189
*1390 FILLER_44_195
*1391 FILLER_44_197
*1392 FILLER_44_209
*1393 FILLER_44_22
*1394 FILLER_44_221
*1395 FILLER_44_233
*1396 FILLER_44_245
*1397 FILLER_44_251
*1398 FILLER_44_253
*1399 FILLER_44_265
*1400 FILLER_44_277
*1401 FILLER_44_289
*1402 FILLER_44_297
*1403 FILLER_44_3
*1404 FILLER_44_32
*1405 FILLER_44_44
*1406 FILLER_44_56
*1407 FILLER_44_68
*1408 FILLER_44_80
*1409 FILLER_44_85
*1410 FILLER_44_97
*1411 FILLER_45_105
*1412 FILLER_45_111
*1413 FILLER_45_113
*1414 FILLER_45_125
*1415 FILLER_45_137
*1416 FILLER_45_149
*1417 FILLER_45_161
*1418 FILLER_45_167
*1419 FILLER_45_169
*1420 FILLER_45_181
*1421 FILLER_45_19
*1422 FILLER_45_193
*1423 FILLER_45_205
*1424 FILLER_45_217
*1425 FILLER_45_223
*1426 FILLER_45_225
*1427 FILLER_45_237
*1428 FILLER_45_249
*1429 FILLER_45_26
*1430 FILLER_45_261
*1431 FILLER_45_273
*1432 FILLER_45_279
*1433 FILLER_45_281
*1434 FILLER_45_293
*1435 FILLER_45_3
*1436 FILLER_45_33
*1437 FILLER_45_45
*1438 FILLER_45_53
*1439 FILLER_45_57
*1440 FILLER_45_69
*1441 FILLER_45_81
*1442 FILLER_45_93
*1443 FILLER_46_109
*1444 FILLER_46_11
*1445 FILLER_46_121
*1446 FILLER_46_133
*1447 FILLER_46_139
*1448 FILLER_46_141
*1449 FILLER_46_153
*1450 FILLER_46_165
*1451 FILLER_46_177
*1452 FILLER_46_189
*1453 FILLER_46_195
*1454 FILLER_46_197
*1455 FILLER_46_209
*1456 FILLER_46_21
*1457 FILLER_46_221
*1458 FILLER_46_233
*1459 FILLER_46_245
*1460 FILLER_46_251
*1461 FILLER_46_253
*1462 FILLER_46_265
*1463 FILLER_46_27
*1464 FILLER_46_277
*1465 FILLER_46_289
*1466 FILLER_46_297
*1467 FILLER_46_3
*1468 FILLER_46_45
*1469 FILLER_46_57
*1470 FILLER_46_69
*1471 FILLER_46_81
*1472 FILLER_46_85
*1473 FILLER_46_97
*1474 FILLER_47_105
*1475 FILLER_47_111
*1476 FILLER_47_113
*1477 FILLER_47_125
*1478 FILLER_47_137
*1479 FILLER_47_149
*1480 FILLER_47_161
*1481 FILLER_47_167
*1482 FILLER_47_169
*1483 FILLER_47_181
*1484 FILLER_47_193
*1485 FILLER_47_20
*1486 FILLER_47_205
*1487 FILLER_47_217
*1488 FILLER_47_223
*1489 FILLER_47_225
*1490 FILLER_47_237
*1491 FILLER_47_249
*1492 FILLER_47_261
*1493 FILLER_47_273
*1494 FILLER_47_279
*1495 FILLER_47_281
*1496 FILLER_47_293
*1497 FILLER_47_3
*1498 FILLER_47_35
*1499 FILLER_47_47
*1500 FILLER_47_55
*1501 FILLER_47_57
*1502 FILLER_47_69
*1503 FILLER_47_81
*1504 FILLER_47_93
*1505 FILLER_48_109
*1506 FILLER_48_11
*1507 FILLER_48_121
*1508 FILLER_48_133
*1509 FILLER_48_139
*1510 FILLER_48_141
*1511 FILLER_48_153
*1512 FILLER_48_165
*1513 FILLER_48_177
*1514 FILLER_48_189
*1515 FILLER_48_195
*1516 FILLER_48_197
*1517 FILLER_48_209
*1518 FILLER_48_221
*1519 FILLER_48_23
*1520 FILLER_48_233
*1521 FILLER_48_245
*1522 FILLER_48_251
*1523 FILLER_48_253
*1524 FILLER_48_265
*1525 FILLER_48_27
*1526 FILLER_48_277
*1527 FILLER_48_289
*1528 FILLER_48_29
*1529 FILLER_48_297
*1530 FILLER_48_3
*1531 FILLER_48_41
*1532 FILLER_48_53
*1533 FILLER_48_65
*1534 FILLER_48_7
*1535 FILLER_48_77
*1536 FILLER_48_83
*1537 FILLER_48_85
*1538 FILLER_48_97
*1539 FILLER_49_105
*1540 FILLER_49_111
*1541 FILLER_49_113
*1542 FILLER_49_12
*1543 FILLER_49_125
*1544 FILLER_49_137
*1545 FILLER_49_149
*1546 FILLER_49_161
*1547 FILLER_49_167
*1548 FILLER_49_169
*1549 FILLER_49_17
*1550 FILLER_49_181
*1551 FILLER_49_193
*1552 FILLER_49_205
*1553 FILLER_49_217
*1554 FILLER_49_223
*1555 FILLER_49_225
*1556 FILLER_49_237
*1557 FILLER_49_249
*1558 FILLER_49_261
*1559 FILLER_49_273
*1560 FILLER_49_279
*1561 FILLER_49_281
*1562 FILLER_49_29
*1563 FILLER_49_293
*1564 FILLER_49_3
*1565 FILLER_49_41
*1566 FILLER_49_53
*1567 FILLER_49_57
*1568 FILLER_49_69
*1569 FILLER_49_8
*1570 FILLER_49_81
*1571 FILLER_49_93
*1572 FILLER_4_109
*1573 FILLER_4_121
*1574 FILLER_4_133
*1575 FILLER_4_139
*1576 FILLER_4_141
*1577 FILLER_4_153
*1578 FILLER_4_165
*1579 FILLER_4_177
*1580 FILLER_4_189
*1581 FILLER_4_19
*1582 FILLER_4_195
*1583 FILLER_4_197
*1584 FILLER_4_209
*1585 FILLER_4_221
*1586 FILLER_4_233
*1587 FILLER_4_245
*1588 FILLER_4_251
*1589 FILLER_4_253
*1590 FILLER_4_265
*1591 FILLER_4_27
*1592 FILLER_4_277
*1593 FILLER_4_289
*1594 FILLER_4_297
*1595 FILLER_4_32
*1596 FILLER_4_41
*1597 FILLER_4_53
*1598 FILLER_4_65
*1599 FILLER_4_77
*1600 FILLER_4_83
*1601 FILLER_4_85
*1602 FILLER_4_97
*1603 FILLER_50_109
*1604 FILLER_50_121
*1605 FILLER_50_133
*1606 FILLER_50_139
*1607 FILLER_50_141
*1608 FILLER_50_15
*1609 FILLER_50_153
*1610 FILLER_50_165
*1611 FILLER_50_177
*1612 FILLER_50_189
*1613 FILLER_50_195
*1614 FILLER_50_197
*1615 FILLER_50_209
*1616 FILLER_50_221
*1617 FILLER_50_233
*1618 FILLER_50_245
*1619 FILLER_50_251
*1620 FILLER_50_253
*1621 FILLER_50_265
*1622 FILLER_50_27
*1623 FILLER_50_277
*1624 FILLER_50_289
*1625 FILLER_50_29
*1626 FILLER_50_297
*1627 FILLER_50_3
*1628 FILLER_50_41
*1629 FILLER_50_53
*1630 FILLER_50_65
*1631 FILLER_50_77
*1632 FILLER_50_83
*1633 FILLER_50_85