*SPEF "ieee 1481-1999"
*DESIGN "user_module_347894637149553236"
*DATE "11:11:11 Fri 11 11, 1111"
*VENDOR "OpenRCX"
*PROGRAM "Parallel Extraction"
*VERSION "1.0"
*DESIGN_FLOW "NAME_SCOPE LOCAL" "PIN_CAP NONE"
*DIVIDER /
*DELIMITER :
*BUS_DELIMITER []
*T_UNIT 1 NS
*C_UNIT 1 PF
*R_UNIT 1 OHM
*L_UNIT 1 HENRY

*NAME_MAP
*1 io_in[0]
*2 io_in[1]
*3 io_in[2]
*4 io_in[3]
*5 io_in[4]
*6 io_in[5]
*7 io_in[6]
*8 io_in[7]
*9 io_out[0]
*10 io_out[1]
*11 io_out[2]
*12 io_out[3]
*13 io_out[4]
*14 io_out[5]
*15 io_out[6]
*16 io_out[7]
*19 _000_
*20 _001_
*21 _002_
*22 _003_
*23 _004_
*24 _005_
*25 _006_
*26 _007_
*27 _008_
*28 _009_
*29 _010_
*30 _011_
*31 _012_
*32 _013_
*33 _014_
*34 _015_
*35 _016_
*36 _017_
*37 _018_
*38 _019_
*39 _020_
*40 _021_
*41 _022_
*42 _023_
*43 _024_
*44 _025_
*45 _026_
*46 _027_
*47 _028_
*48 _029_
*49 _030_
*50 _031_
*51 _032_
*52 _033_
*53 _034_
*54 _035_
*55 _036_
*56 _037_
*57 _038_
*58 _039_
*59 _040_
*60 _041_
*61 _042_
*62 _043_
*63 _044_
*64 _045_
*65 _046_
*66 _047_
*67 _048_
*68 _049_
*69 _050_
*70 _051_
*71 _052_
*72 _053_
*73 _054_
*74 _055_
*75 _056_
*76 _057_
*77 _058_
*78 _059_
*79 _060_
*80 _061_
*81 _062_
*82 _063_
*83 _064_
*84 _065_
*85 _066_
*86 _067_
*87 _068_
*88 _069_
*89 _070_
*90 _071_
*91 _072_
*92 _073_
*93 _074_
*94 _075_
*95 _076_
*96 _077_
*97 _078_
*98 _079_
*99 _080_
*100 _081_
*101 _082_
*102 _083_
*103 _084_
*104 _085_
*105 _086_
*106 _087_
*107 _088_
*108 _089_
*109 _090_
*110 _091_
*111 _092_
*112 _093_
*113 _094_
*114 _095_
*115 _096_
*116 _097_
*117 _098_
*118 _099_
*119 _100_
*120 _101_
*121 _102_
*122 _103_
*123 _104_
*124 _105_
*125 _106_
*126 _107_
*127 _108_
*128 _109_
*129 _110_
*130 _111_
*131 _112_
*132 _113_
*133 _114_
*134 _115_
*135 _116_
*136 _117_
*137 _118_
*138 _119_
*139 _120_
*140 _121_
*141 _122_
*142 _123_
*143 _124_
*144 _125_
*145 _126_
*146 _127_
*147 _128_
*148 _129_
*149 _130_
*150 _131_
*151 _132_
*152 _133_
*153 _134_
*154 _135_
*155 _136_
*156 _137_
*157 _138_
*158 _139_
*159 _140_
*160 _141_
*161 _142_
*162 _143_
*163 _144_
*164 _145_
*165 _146_
*166 _147_
*167 _148_
*168 _149_
*169 _150_
*170 _151_
*171 _152_
*172 _153_
*173 _154_
*174 _155_
*175 _156_
*176 _157_
*177 _158_
*178 _159_
*179 _160_
*180 _161_
*181 _162_
*182 _163_
*183 _164_
*184 _165_
*185 _166_
*186 _167_
*187 _168_
*188 _169_
*189 _170_
*190 _171_
*191 _172_
*192 _173_
*193 _174_
*194 _175_
*195 and10\.a
*196 and10\.b
*197 and11\.a
*198 and12\.a
*199 and12\.b
*200 and13\.a
*201 and30\.b
*202 and34\.b
*203 and45\.a
*204 and45\.b
*205 and45\.out
*206 and46\.a
*207 and47\.a
*208 and48\.a
*209 and49\.b
*210 and67\.b
*211 and71\.b
*212 and75\.a
*213 and75\.b
*214 and76\.a
*215 and76\.b
*216 and78\.a
*217 and78\.b
*218 and8\.out
*219 and80\.a
*220 and80\.b
*221 and82\.a
*222 and82\.b
*223 and84\.a
*224 and84\.b
*225 and86\.a
*226 and86\.b
*227 and88\.a
*228 and88\.b
*229 and90\.out
*230 clknet_0_io_in[0]
*231 clknet_1_0__leaf_io_in[0]
*232 clknet_1_1__leaf_io_in[0]
*233 flop1\.d
*234 flop18\.d
*235 flop19\.d
*236 flop2\.d
*237 flop20\.d
*238 flop21\.d
*239 flop22\.d
*240 flop23\.d
*241 flop24\.d
*242 flop26\.d
*243 flop27\.d
*244 flop28\.d
*245 flop29\.d
*246 flop3\.d
*247 flop30\.d
*248 flop31\.d
*249 flop32\.d
*250 flop33\.q
*251 flop34\.q
*252 flop38\.q
*253 flop39\.q
*254 flop40\.q
*255 flop41\.q
*256 mux21\.out
*257 mux22\.out
*258 mux23\.out
*259 mux24\.out
*260 mux25\.out
*261 mux26\.out
*262 mux27\.out
*263 mux28\.out
*264 net1
*265 net10
*266 net11
*267 net12
*268 net2
*269 net3
*270 net4
*271 net5
*272 net6
*273 net7
*274 net8
*275 net9
*276 ANTENNA_0
*277 FILLER_0_109
*278 FILLER_0_113
*279 FILLER_0_125
*280 FILLER_0_137
*281 FILLER_0_141
*282 FILLER_0_153
*283 FILLER_0_165
*284 FILLER_0_169
*285 FILLER_0_181
*286 FILLER_0_193
*287 FILLER_0_197
*288 FILLER_0_209
*289 FILLER_0_221
*290 FILLER_0_225
*291 FILLER_0_237
*292 FILLER_0_24
*293 FILLER_0_249
*294 FILLER_0_253
*295 FILLER_0_265
*296 FILLER_0_277
*297 FILLER_0_281
*298 FILLER_0_29
*299 FILLER_0_293
*300 FILLER_0_3
*301 FILLER_0_49
*302 FILLER_0_55
*303 FILLER_0_7
*304 FILLER_0_73
*305 FILLER_0_80
*306 FILLER_0_85
*307 FILLER_0_97
*308 FILLER_10_104
*309 FILLER_10_108
*310 FILLER_10_112
*311 FILLER_10_124
*312 FILLER_10_136
*313 FILLER_10_141
*314 FILLER_10_153
*315 FILLER_10_165
*316 FILLER_10_177
*317 FILLER_10_189
*318 FILLER_10_195
*319 FILLER_10_197
*320 FILLER_10_209
*321 FILLER_10_221
*322 FILLER_10_23
*323 FILLER_10_233
*324 FILLER_10_245
*325 FILLER_10_251
*326 FILLER_10_253
*327 FILLER_10_265
*328 FILLER_10_27
*329 FILLER_10_277
*330 FILLER_10_289
*331 FILLER_10_29
*332 FILLER_10_297
*333 FILLER_10_3
*334 FILLER_10_48
*335 FILLER_10_60
*336 FILLER_10_64
*337 FILLER_10_69
*338 FILLER_10_77
*339 FILLER_10_83
*340 FILLER_10_85
*341 FILLER_10_92
*342 FILLER_11_108
*343 FILLER_11_113
*344 FILLER_11_125
*345 FILLER_11_137
*346 FILLER_11_149
*347 FILLER_11_15
*348 FILLER_11_161
*349 FILLER_11_167
*350 FILLER_11_169
*351 FILLER_11_181
*352 FILLER_11_193
*353 FILLER_11_205
*354 FILLER_11_217
*355 FILLER_11_223
*356 FILLER_11_225
*357 FILLER_11_237
*358 FILLER_11_249
*359 FILLER_11_261
*360 FILLER_11_27
*361 FILLER_11_273
*362 FILLER_11_279
*363 FILLER_11_281
*364 FILLER_11_293
*365 FILLER_11_3
*366 FILLER_11_31
*367 FILLER_11_48
*368 FILLER_11_57
*369 FILLER_11_75
*370 FILLER_11_88
*371 FILLER_12_116
*372 FILLER_12_128
*373 FILLER_12_141
*374 FILLER_12_153
*375 FILLER_12_165
*376 FILLER_12_177
*377 FILLER_12_18
*378 FILLER_12_189
*379 FILLER_12_195
*380 FILLER_12_197
*381 FILLER_12_209
*382 FILLER_12_221
*383 FILLER_12_233
*384 FILLER_12_245
*385 FILLER_12_251
*386 FILLER_12_253
*387 FILLER_12_26
*388 FILLER_12_265
*389 FILLER_12_277
*390 FILLER_12_289
*391 FILLER_12_29
*392 FILLER_12_297
*393 FILLER_12_48
*394 FILLER_12_6
*395 FILLER_12_70
*396 FILLER_12_77
*397 FILLER_12_83
*398 FILLER_12_92
*399 FILLER_13_106
*400 FILLER_13_113
*401 FILLER_13_119
*402 FILLER_13_136
*403 FILLER_13_148
*404 FILLER_13_15
*405 FILLER_13_160
*406 FILLER_13_169
*407 FILLER_13_181
*408 FILLER_13_193
*409 FILLER_13_205
*410 FILLER_13_217
*411 FILLER_13_223
*412 FILLER_13_225
*413 FILLER_13_23
*414 FILLER_13_237
*415 FILLER_13_249
*416 FILLER_13_261
*417 FILLER_13_273
*418 FILLER_13_279
*419 FILLER_13_281
*420 FILLER_13_293
*421 FILLER_13_3
*422 FILLER_13_32
*423 FILLER_13_44
*424 FILLER_13_52
*425 FILLER_13_62
*426 FILLER_13_69
*427 FILLER_13_79
*428 FILLER_13_87
*429 FILLER_13_91
*430 FILLER_13_95
*431 FILLER_14_103
*432 FILLER_14_110
*433 FILLER_14_122
*434 FILLER_14_13
*435 FILLER_14_134
*436 FILLER_14_141
*437 FILLER_14_153
*438 FILLER_14_165
*439 FILLER_14_177
*440 FILLER_14_189
*441 FILLER_14_195
*442 FILLER_14_197
*443 FILLER_14_209
*444 FILLER_14_22
*445 FILLER_14_221
*446 FILLER_14_233
*447 FILLER_14_245
*448 FILLER_14_251
*449 FILLER_14_253
*450 FILLER_14_265
*451 FILLER_14_277
*452 FILLER_14_289
*453 FILLER_14_29
*454 FILLER_14_297
*455 FILLER_14_3
*456 FILLER_14_47
*457 FILLER_14_53
*458 FILLER_14_64
*459 FILLER_14_80
*460 FILLER_14_85
*461 FILLER_14_9
*462 FILLER_14_96
*463 FILLER_15_107
*464 FILLER_15_111
*465 FILLER_15_113
*466 FILLER_15_118
*467 FILLER_15_126
*468 FILLER_15_14
*469 FILLER_15_143
*470 FILLER_15_155
*471 FILLER_15_167
*472 FILLER_15_169
*473 FILLER_15_181
*474 FILLER_15_193
*475 FILLER_15_205
*476 FILLER_15_217
*477 FILLER_15_223
*478 FILLER_15_225
*479 FILLER_15_237
*480 FILLER_15_249
*481 FILLER_15_26
*482 FILLER_15_261
*483 FILLER_15_273
*484 FILLER_15_279
*485 FILLER_15_281
*486 FILLER_15_293
*487 FILLER_15_3
*488 FILLER_15_46
*489 FILLER_15_54
*490 FILLER_15_60
*491 FILLER_15_7
*492 FILLER_15_74
*493 FILLER_15_88
*494 FILLER_15_96
*495 FILLER_16_111
*496 FILLER_16_131
*497 FILLER_16_139
*498 FILLER_16_141
*499 FILLER_16_149
*500 FILLER_16_168
*501 FILLER_16_18
*502 FILLER_16_180
*503 FILLER_16_192
*504 FILLER_16_197
*505 FILLER_16_209
*506 FILLER_16_221
*507 FILLER_16_233
*508 FILLER_16_245
*509 FILLER_16_251
*510 FILLER_16_253
*511 FILLER_16_26
*512 FILLER_16_265
*513 FILLER_16_277
*514 FILLER_16_289
*515 FILLER_16_297
*516 FILLER_16_35
*517 FILLER_16_42
*518 FILLER_16_54
*519 FILLER_16_6
*520 FILLER_16_66
*521 FILLER_16_75
*522 FILLER_16_83
*523 FILLER_16_85
*524 FILLER_16_91
*525 FILLER_17_105
*526 FILLER_17_111
*527 FILLER_17_122
*528 FILLER_17_134
*529 FILLER_17_146
*530 FILLER_17_158
*531 FILLER_17_166
*532 FILLER_17_169
*533 FILLER_17_181
*534 FILLER_17_193
*535 FILLER_17_205
*536 FILLER_17_21
*537 FILLER_17_217
*538 FILLER_17_223
*539 FILLER_17_225
*540 FILLER_17_237
*541 FILLER_17_249
*542 FILLER_17_261
*543 FILLER_17_273
*544 FILLER_17_279
*545 FILLER_17_281
*546 FILLER_17_29
*547 FILLER_17_293
*548 FILLER_17_3
*549 FILLER_17_39
*550 FILLER_17_47
*551 FILLER_17_52
*552 FILLER_17_62
*553 FILLER_17_73
*554 FILLER_17_87
*555 FILLER_17_9
*556 FILLER_17_97
*557 FILLER_18_10
*558 FILLER_18_100
*559 FILLER_18_112
*560 FILLER_18_120
*561 FILLER_18_127
*562 FILLER_18_139
*563 FILLER_18_141
*564 FILLER_18_149
*565 FILLER_18_161
*566 FILLER_18_173
*567 FILLER_18_18
*568 FILLER_18_185
*569 FILLER_18_193
*570 FILLER_18_197
*571 FILLER_18_209
*572 FILLER_18_221
*573 FILLER_18_233
*574 FILLER_18_24
*575 FILLER_18_245
*576 FILLER_18_251
*577 FILLER_18_253
*578 FILLER_18_265
*579 FILLER_18_277
*580 FILLER_18_289
*581 FILLER_18_29
*582 FILLER_18_297
*583 FILLER_18_3
*584 FILLER_18_39
*585 FILLER_18_45
*586 FILLER_18_53
*587 FILLER_18_62
*588 FILLER_18_68
*589 FILLER_18_73
*590 FILLER_18_80
*591 FILLER_18_92
*592 FILLER_18_96
*593 FILLER_19_107
*594 FILLER_19_111
*595 FILLER_19_113
*596 FILLER_19_124
*597 FILLER_19_132
*598 FILLER_19_151
*599 FILLER_19_163
*600 FILLER_19_167
*601 FILLER_19_169
*602 FILLER_19_18
*603 FILLER_19_181
*604 FILLER_19_193
*605 FILLER_19_205
*606 FILLER_19_217
*607 FILLER_19_223
*608 FILLER_19_225
*609 FILLER_19_237
*610 FILLER_19_249
*611 FILLER_19_261
*612 FILLER_19_273
*613 FILLER_19_279
*614 FILLER_19_281
*615 FILLER_19_29
*616 FILLER_19_293
*617 FILLER_19_3
*618 FILLER_19_41
*619 FILLER_19_51
*620 FILLER_19_55
*621 FILLER_19_57
*622 FILLER_19_61
*623 FILLER_19_65
*624 FILLER_19_74
*625 FILLER_19_8
*626 FILLER_19_81
*627 FILLER_19_90
*628 FILLER_19_97
*629 FILLER_1_101
*630 FILLER_1_108
*631 FILLER_1_113
*632 FILLER_1_125
*633 FILLER_1_137
*634 FILLER_1_149
*635 FILLER_1_15
*636 FILLER_1_161
*637 FILLER_1_167
*638 FILLER_1_169
*639 FILLER_1_181
*640 FILLER_1_193
*641 FILLER_1_205
*642 FILLER_1_217
*643 FILLER_1_223
*644 FILLER_1_225
*645 FILLER_1_237
*646 FILLER_1_249
*647 FILLER_1_261
*648 FILLER_1_273
*649 FILLER_1_279
*650 FILLER_1_281
*651 FILLER_1_293
*652 FILLER_1_3
*653 FILLER_1_32
*654 FILLER_1_52
*655 FILLER_1_73
*656 FILLER_1_93
*657 FILLER_20_100
*658 FILLER_20_11
*659 FILLER_20_112
*660 FILLER_20_136
*661 FILLER_20_141
*662 FILLER_20_153
*663 FILLER_20_165
*664 FILLER_20_177
*665 FILLER_20_189
*666 FILLER_20_195
*667 FILLER_20_197
*668 FILLER_20_209
*669 FILLER_20_221
*670 FILLER_20_23
*671 FILLER_20_233
*672 FILLER_20_245
*673 FILLER_20_251
*674 FILLER_20_253
*675 FILLER_20_265
*676 FILLER_20_27
*677 FILLER_20_277
*678 FILLER_20_289
*679 FILLER_20_297
*680 FILLER_20_3
*681 FILLER_20_33
*682 FILLER_20_45
*683 FILLER_20_64
*684 FILLER_20_80
*685 FILLER_20_92
*686 FILLER_21_106
*687 FILLER_21_113
*688 FILLER_21_119
*689 FILLER_21_131
*690 FILLER_21_139
*691 FILLER_21_151
*692 FILLER_21_16
*693 FILLER_21_163
*694 FILLER_21_167
*695 FILLER_21_169
*696 FILLER_21_181
*697 FILLER_21_193
*698 FILLER_21_205
*699 FILLER_21_217
*700 FILLER_21_223
*701 FILLER_21_225
*702 FILLER_21_237
*703 FILLER_21_24
*704 FILLER_21_249
*705 FILLER_21_261
*706 FILLER_21_273
*707 FILLER_21_279
*708 FILLER_21_281
*709 FILLER_21_29
*710 FILLER_21_293
*711 FILLER_21_39
*712 FILLER_21_47
*713 FILLER_21_55
*714 FILLER_21_60
*715 FILLER_21_72
*716 FILLER_21_84
*717 FILLER_21_90
*718 FILLER_21_94
*719 FILLER_22_107
*720 FILLER_22_11
*721 FILLER_22_115
*722 FILLER_22_124
*723 FILLER_22_136
*724 FILLER_22_141
*725 FILLER_22_145
*726 FILLER_22_153
*727 FILLER_22_165
*728 FILLER_22_177
*729 FILLER_22_189
*730 FILLER_22_195
*731 FILLER_22_197
*732 FILLER_22_209
*733 FILLER_22_21
*734 FILLER_22_221
*735 FILLER_22_233
*736 FILLER_22_245
*737 FILLER_22_251
*738 FILLER_22_253
*739 FILLER_22_265
*740 FILLER_22_27
*741 FILLER_22_277
*742 FILLER_22_289
*743 FILLER_22_29
*744 FILLER_22_297
*745 FILLER_22_3
*746 FILLER_22_35
*747 FILLER_22_43
*748 FILLER_22_50
*749 FILLER_22_54
*750 FILLER_22_64
*751 FILLER_22_7
*752 FILLER_22_78
*753 FILLER_22_85
*754 FILLER_22_95
*755 FILLER_23_100
*756 FILLER_23_108
*757 FILLER_23_116
*758 FILLER_23_120
*759 FILLER_23_128
*760 FILLER_23_136
*761 FILLER_23_144
*762 FILLER_23_156
*763 FILLER_23_169
*764 FILLER_23_17
*765 FILLER_23_181
*766 FILLER_23_193
*767 FILLER_23_205
*768 FILLER_23_217
*769 FILLER_23_223
*770 FILLER_23_225
*771 FILLER_23_237
*772 FILLER_23_249
*773 FILLER_23_261
*774 FILLER_23_27
*775 FILLER_23_273
*776 FILLER_23_279
*777 FILLER_23_281
*778 FILLER_23_293
*779 FILLER_23_3
*780 FILLER_23_36
*781 FILLER_23_47
*782 FILLER_23_55
*783 FILLER_23_57
*784 FILLER_23_69
*785 FILLER_23_80
*786 FILLER_23_94
*787 FILLER_24_10
*788 FILLER_24_106
*789 FILLER_24_118
*790 FILLER_24_134
*791 FILLER_24_141
*792 FILLER_24_153
*793 FILLER_24_165
*794 FILLER_24_177
*795 FILLER_24_18
*796 FILLER_24_189
*797 FILLER_24_195
*798 FILLER_24_197
*799 FILLER_24_209
*800 FILLER_24_221
*801 FILLER_24_233
*802 FILLER_24_245
*803 FILLER_24_251
*804 FILLER_24_253
*805 FILLER_24_26
*806 FILLER_24_265
*807 FILLER_24_277
*808 FILLER_24_289
*809 FILLER_24_29
*810 FILLER_24_297
*811 FILLER_24_3
*812 FILLER_24_38
*813 FILLER_24_50
*814 FILLER_24_60
*815 FILLER_24_69
*816 FILLER_24_80
*817 FILLER_24_95
*818 FILLER_25_106
*819 FILLER_25_119
*820 FILLER_25_131
*821 FILLER_25_144
*822 FILLER_25_156
*823 FILLER_25_16
*824 FILLER_25_169
*825 FILLER_25_181
*826 FILLER_25_193
*827 FILLER_25_205
*828 FILLER_25_217
*829 FILLER_25_223
*830 FILLER_25_225
*831 FILLER_25_237
*832 FILLER_25_249
*833 FILLER_25_261
*834 FILLER_25_27
*835 FILLER_25_273
*836 FILLER_25_279
*837 FILLER_25_281
*838 FILLER_25_293
*839 FILLER_25_3
*840 FILLER_25_39
*841 FILLER_25_45
*842 FILLER_25_53
*843 FILLER_25_66
*844 FILLER_25_7
*845 FILLER_25_77
*846 FILLER_25_89
*847 FILLER_25_94
*848 FILLER_26_100
*849 FILLER_26_109
*850 FILLER_26_11
*851 FILLER_26_117
*852 FILLER_26_125
*853 FILLER_26_137
*854 FILLER_26_146
*855 FILLER_26_158
*856 FILLER_26_170
*857 FILLER_26_18
*858 FILLER_26_182
*859 FILLER_26_194
*860 FILLER_26_197
*861 FILLER_26_209
*862 FILLER_26_221
*863 FILLER_26_233
*864 FILLER_26_245
*865 FILLER_26_251
*866 FILLER_26_253
*867 FILLER_26_26
*868 FILLER_26_265
*869 FILLER_26_277
*870 FILLER_26_289
*871 FILLER_26_29
*872 FILLER_26_297
*873 FILLER_26_3
*874 FILLER_26_39
*875 FILLER_26_47
*876 FILLER_26_52
*877 FILLER_26_60
*878 FILLER_26_69
*879 FILLER_26_73
*880 FILLER_26_77
*881 FILLER_26_83
*882 FILLER_26_92
*883 FILLER_26_96
*884 FILLER_27_101
*885 FILLER_27_109
*886 FILLER_27_119
*887 FILLER_27_127
*888 FILLER_27_13
*889 FILLER_27_139
*890 FILLER_27_148
*891 FILLER_27_160
*892 FILLER_27_169
*893 FILLER_27_181
*894 FILLER_27_193
*895 FILLER_27_205
*896 FILLER_27_217
*897 FILLER_27_223
*898 FILLER_27_225
*899 FILLER_27_237
*900 FILLER_27_249
*901 FILLER_27_261
*902 FILLER_27_273
*903 FILLER_27_279
*904 FILLER_27_281
*905 FILLER_27_293
*906 FILLER_27_38
*907 FILLER_27_50
*908 FILLER_27_57
*909 FILLER_27_65
*910 FILLER_27_73
*911 FILLER_27_77
*912 FILLER_27_83
*913 FILLER_27_92
*914 FILLER_28_105
*915 FILLER_28_117
*916 FILLER_28_128
*917 FILLER_28_141
*918 FILLER_28_153
*919 FILLER_28_165
*920 FILLER_28_177
*921 FILLER_28_189
*922 FILLER_28_195
*923 FILLER_28_197
*924 FILLER_28_209
*925 FILLER_28_221
*926 FILLER_28_233
*927 FILLER_28_24
*928 FILLER_28_245
*929 FILLER_28_251
*930 FILLER_28_253
*931 FILLER_28_265
*932 FILLER_28_277
*933 FILLER_28_289
*934 FILLER_28_297
*935 FILLER_28_32
*936 FILLER_28_43
*937 FILLER_28_49
*938 FILLER_28_57
*939 FILLER_28_69
*940 FILLER_28_81
*941 FILLER_28_85
*942 FILLER_28_96
*943 FILLER_29_102
*944 FILLER_29_110
*945 FILLER_29_113
*946 FILLER_29_120
*947 FILLER_29_132
*948 FILLER_29_144
*949 FILLER_29_15
*950 FILLER_29_156
*951 FILLER_29_169
*952 FILLER_29_181
*953 FILLER_29_193
*954 FILLER_29_20
*955 FILLER_29_205
*956 FILLER_29_217
*957 FILLER_29_223
*958 FILLER_29_225
*959 FILLER_29_237
*960 FILLER_29_249
*961 FILLER_29_261
*962 FILLER_29_273
*963 FILLER_29_279
*964 FILLER_29_281
*965 FILLER_29_293
*966 FILLER_29_3
*967 FILLER_29_32
*968 FILLER_29_40
*969 FILLER_29_52
*970 FILLER_29_57
*971 FILLER_29_69
*972 FILLER_29_85
*973 FILLER_29_95
*974 FILLER_2_106
*975 FILLER_2_118
*976 FILLER_2_130
*977 FILLER_2_138
*978 FILLER_2_141
*979 FILLER_2_153
*980 FILLER_2_165
*981 FILLER_2_177
*982 FILLER_2_189
*983 FILLER_2_19
*984 FILLER_2_195
*985 FILLER_2_197
*986 FILLER_2_209
*987 FILLER_2_221
*988 FILLER_2_233
*989 FILLER_2_245
*990 FILLER_2_251
*991 FILLER_2_253
*992 FILLER_2_265
*993 FILLER_2_27
*994 FILLER_2_277
*995 FILLER_2_289
*996 FILLER_2_29
*997 FILLER_2_297
*998 FILLER_2_48
*999 FILLER_2_68
*1000 FILLER_2_76
*1001 FILLER_2_85
*1002 FILLER_2_89
*1003 FILLER_2_94
*1004 FILLER_30_109
*1005 FILLER_30_117
*1006 FILLER_30_125
*1007 FILLER_30_137
*1008 FILLER_30_141
*1009 FILLER_30_153
*1010 FILLER_30_165
*1011 FILLER_30_177
*1012 FILLER_30_189
*1013 FILLER_30_195
*1014 FILLER_30_197
*1015 FILLER_30_209
*1016 FILLER_30_221
*1017 FILLER_30_233
*1018 FILLER_30_24
*1019 FILLER_30_245
*1020 FILLER_30_251
*1021 FILLER_30_253
*1022 FILLER_30_265
*1023 FILLER_30_277
*1024 FILLER_30_289
*1025 FILLER_30_29
*1026 FILLER_30_297
*1027 FILLER_30_41
*1028 FILLER_30_53
*1029 FILLER_30_65
*1030 FILLER_30_77
*1031 FILLER_30_83
*1032 FILLER_30_85
*1033 FILLER_30_97
*1034 FILLER_31_102
*1035 FILLER_31_110
*1036 FILLER_31_121
*1037 FILLER_31_133
*1038 FILLER_31_14
*1039 FILLER_31_145
*1040 FILLER_31_157
*1041 FILLER_31_165
*1042 FILLER_31_169
*1043 FILLER_31_181
*1044 FILLER_31_193
*1045 FILLER_31_20
*1046 FILLER_31_205
*1047 FILLER_31_217
*1048 FILLER_31_223
*1049 FILLER_31_225
*1050 FILLER_31_237
*1051 FILLER_31_249
*1052 FILLER_31_261
*1053 FILLER_31_273
*1054 FILLER_31_279
*1055 FILLER_31_281
*1056 FILLER_31_293
*1057 FILLER_31_3
*1058 FILLER_31_42
*1059 FILLER_31_48
*1060 FILLER_31_52
*1061 FILLER_31_62
*1062 FILLER_31_71
*1063 FILLER_31_78
*1064 FILLER_31_84
*1065 FILLER_31_90
*1066 FILLER_32_109
*1067 FILLER_32_121
*1068 FILLER_32_133
*1069 FILLER_32_139
*1070 FILLER_32_150
*1071 FILLER_32_162
*1072 FILLER_32_174
*1073 FILLER_32_186
*1074 FILLER_32_194
*1075 FILLER_32_197
*1076 FILLER_32_209
*1077 FILLER_32_21
*1078 FILLER_32_221
*1079 FILLER_32_233
*1080 FILLER_32_245
*1081 FILLER_32_251
*1082 FILLER_32_253
*1083 FILLER_32_265
*1084 FILLER_32_27
*1085 FILLER_32_277
*1086 FILLER_32_289
*1087 FILLER_32_29
*1088 FILLER_32_297
*1089 FILLER_32_3
*1090 FILLER_32_41
*1091 FILLER_32_47
*1092 FILLER_32_54
*1093 FILLER_32_66
*1094 FILLER_32_74
*1095 FILLER_32_82
*1096 FILLER_32_85
*1097 FILLER_32_9
*1098 FILLER_32_97
*1099 FILLER_33_108
*1100 FILLER_33_113
*1101 FILLER_33_121
*1102 FILLER_33_129
*1103 FILLER_33_141
*1104 FILLER_33_15
*1105 FILLER_33_153
*1106 FILLER_33_165
*1107 FILLER_33_169
*1108 FILLER_33_181
*1109 FILLER_33_193
*1110 FILLER_33_20
*1111 FILLER_33_205
*1112 FILLER_33_217
*1113 FILLER_33_223
*1114 FILLER_33_225
*1115 FILLER_33_237
*1116 FILLER_33_249
*1117 FILLER_33_261
*1118 FILLER_33_273
*1119 FILLER_33_279
*1120 FILLER_33_281
*1121 FILLER_33_293
*1122 FILLER_33_3
*1123 FILLER_33_45
*1124 FILLER_33_53
*1125 FILLER_33_62
*1126 FILLER_33_72
*1127 FILLER_33_84
*1128 FILLER_33_9
*1129 FILLER_33_96
*1130 FILLER_34_104
*1131 FILLER_34_112
*1132 FILLER_34_122
*1133 FILLER_34_134
*1134 FILLER_34_141
*1135 FILLER_34_15
*1136 FILLER_34_153
*1137 FILLER_34_165
*1138 FILLER_34_177
*1139 FILLER_34_189
*1140 FILLER_34_195
*1141 FILLER_34_197
*1142 FILLER_34_209
*1143 FILLER_34_221
*1144 FILLER_34_233
*1145 FILLER_34_245
*1146 FILLER_34_251
*1147 FILLER_34_253
*1148 FILLER_34_265
*1149 FILLER_34_27
*1150 FILLER_34_277
*1151 FILLER_34_289
*1152 FILLER_34_29
*1153 FILLER_34_297
*1154 FILLER_34_3
*1155 FILLER_34_40
*1156 FILLER_34_52
*1157 FILLER_34_66
*1158 FILLER_34_78
*1159 FILLER_34_92
*1160 FILLER_35_107
*1161 FILLER_35_111
*1162 FILLER_35_113
*1163 FILLER_35_125
*1164 FILLER_35_137
*1165 FILLER_35_149
*1166 FILLER_35_161
*1167 FILLER_35_167
*1168 FILLER_35_169
*1169 FILLER_35_181
*1170 FILLER_35_193
*1171 FILLER_35_205
*1172 FILLER_35_217
*1173 FILLER_35_223
*1174 FILLER_35_225
*1175 FILLER_35_237
*1176 FILLER_35_249
*1177 FILLER_35_261
*1178 FILLER_35_273
*1179 FILLER_35_279
*1180 FILLER_35_281
*1181 FILLER_35_293
*1182 FILLER_35_3
*1183 FILLER_35_34
*1184 FILLER_35_38
*1185 FILLER_35_47
*1186 FILLER_35_55
*1187 FILLER_35_57
*1188 FILLER_35_68
*1189 FILLER_35_82
*1190 FILLER_35_9
*1191 FILLER_35_95
*1192 FILLER_35_99
*1193 FILLER_36_109
*1194 FILLER_36_12
*1195 FILLER_36_121
*1196 FILLER_36_133
*1197 FILLER_36_139
*1198 FILLER_36_141
*1199 FILLER_36_153
*1200 FILLER_36_165
*1201 FILLER_36_177
*1202 FILLER_36_189
*1203 FILLER_36_19
*1204 FILLER_36_195
*1205 FILLER_36_197
*1206 FILLER_36_209
*1207 FILLER_36_221
*1208 FILLER_36_233
*1209 FILLER_36_245
*1210 FILLER_36_251
*1211 FILLER_36_253
*1212 FILLER_36_265
*1213 FILLER_36_27
*1214 FILLER_36_277
*1215 FILLER_36_289
*1216 FILLER_36_297
*1217 FILLER_36_3
*1218 FILLER_36_32
*1219 FILLER_36_44
*1220 FILLER_36_56
*1221 FILLER_36_68
*1222 FILLER_36_7
*1223 FILLER_36_76
*1224 FILLER_36_80
*1225 FILLER_36_85
*1226 FILLER_36_97
*1227 FILLER_37_105
*1228 FILLER_37_111
*1229 FILLER_37_113
*1230 FILLER_37_12
*1231 FILLER_37_125
*1232 FILLER_37_137
*1233 FILLER_37_149
*1234 FILLER_37_161
*1235 FILLER_37_167
*1236 FILLER_37_169
*1237 FILLER_37_181
*1238 FILLER_37_193
*1239 FILLER_37_20
*1240 FILLER_37_205
*1241 FILLER_37_217
*1242 FILLER_37_223
*1243 FILLER_37_225
*1244 FILLER_37_237
*1245 FILLER_37_249
*1246 FILLER_37_261
*1247 FILLER_37_273
*1248 FILLER_37_279
*1249 FILLER_37_281
*1250 FILLER_37_293
*1251 FILLER_37_33
*1252 FILLER_37_44
*1253 FILLER_37_57
*1254 FILLER_37_69
*1255 FILLER_37_81
*1256 FILLER_37_93
*1257 FILLER_38_109
*1258 FILLER_38_121
*1259 FILLER_38_133
*1260 FILLER_38_139
*1261 FILLER_38_141
*1262 FILLER_38_15
*1263 FILLER_38_153
*1264 FILLER_38_165
*1265 FILLER_38_177
*1266 FILLER_38_189
*1267 FILLER_38_195
*1268 FILLER_38_197
*1269 FILLER_38_209
*1270 FILLER_38_221
*1271 FILLER_38_233
*1272 FILLER_38_245
*1273 FILLER_38_251
*1274 FILLER_38_253
*1275 FILLER_38_265
*1276 FILLER_38_27
*1277 FILLER_38_277
*1278 FILLER_38_289
*1279 FILLER_38_29
*1280 FILLER_38_297
*1281 FILLER_38_3
*1282 FILLER_38_41
*1283 FILLER_38_53
*1284 FILLER_38_66
*1285 FILLER_38_78
*1286 FILLER_38_85
*1287 FILLER_38_97
*1288 FILLER_39_105
*1289 FILLER_39_111
*1290 FILLER_39_113
*1291 FILLER_39_125
*1292 FILLER_39_137
*1293 FILLER_39_149
*1294 FILLER_39_15
*1295 FILLER_39_161
*1296 FILLER_39_167
*1297 FILLER_39_169
*1298 FILLER_39_181
*1299 FILLER_39_193
*1300 FILLER_39_205
*1301 FILLER_39_217
*1302 FILLER_39_223
*1303 FILLER_39_225
*1304 FILLER_39_237
*1305 FILLER_39_249
*1306 FILLER_39_261
*1307 FILLER_39_27
*1308 FILLER_39_273
*1309 FILLER_39_279
*1310 FILLER_39_281
*1311 FILLER_39_293
*1312 FILLER_39_3
*1313 FILLER_39_35
*1314 FILLER_39_41
*1315 FILLER_39_52
*1316 FILLER_39_57
*1317 FILLER_39_69
*1318 FILLER_39_81
*1319 FILLER_39_93
*1320 FILLER_3_104
*1321 FILLER_3_116
*1322 FILLER_3_128
*1323 FILLER_3_140
*1324 FILLER_3_15
*1325 FILLER_3_152
*1326 FILLER_3_164
*1327 FILLER_3_169
*1328 FILLER_3_181
*1329 FILLER_3_193
*1330 FILLER_3_205
*1331 FILLER_3_217
*1332 FILLER_3_223
*1333 FILLER_3_225
*1334 FILLER_3_237
*1335 FILLER_3_249
*1336 FILLER_3_261
*1337 FILLER_3_273
*1338 FILLER_3_279
*1339 FILLER_3_281
*1340 FILLER_3_293
*1341 FILLER_3_3
*1342 FILLER_3_36
*1343 FILLER_3_48
*1344 FILLER_3_73
*1345 FILLER_3_80
*1346 FILLER_3_92
*1347 FILLER_40_109
*1348 FILLER_40_121
*1349 FILLER_40_133
*1350 FILLER_40_139
*1351 FILLER_40_141
*1352 FILLER_40_15
*1353 FILLER_40_153
*1354 FILLER_40_165
*1355 FILLER_40_177
*1356 FILLER_40_189
*1357 FILLER_40_195
*1358 FILLER_40_197
*1359 FILLER_40_209
*1360 FILLER_40_221
*1361 FILLER_40_233
*1362 FILLER_40_245
*1363 FILLER_40_251
*1364 FILLER_40_253
*1365 FILLER_40_265
*1366 FILLER_40_27
*1367 FILLER_40_277
*1368 FILLER_40_289
*1369 FILLER_40_29
*1370 FILLER_40_297
*1371 FILLER_40_3
*1372 FILLER_40_41
*1373 FILLER_40_53
*1374 FILLER_40_65
*1375 FILLER_40_77
*1376 FILLER_40_83
*1377 FILLER_40_85
*1378 FILLER_40_97
*1379 FILLER_41_102
*1380 FILLER_41_110
*1381 FILLER_41_113
*1382 FILLER_41_125
*1383 FILLER_41_137
*1384 FILLER_41_149
*1385 FILLER_41_161
*1386 FILLER_41_167
*1387 FILLER_41_169
*1388 FILLER_41_181
*1389 FILLER_41_19
*1390 FILLER_41_193
*1391 FILLER_41_205
*1392 FILLER_41_217
*1393 FILLER_41_223
*1394 FILLER_41_225
*1395 FILLER_41_237
*1396 FILLER_41_249
*1397 FILLER_41_261
*1398 FILLER_41_273
*1399 FILLER_41_279
*1400 FILLER_41_281
*1401 FILLER_41_293
*1402 FILLER_41_3
*1403 FILLER_41_31
*1404 FILLER_41_43
*1405 FILLER_41_47
*1406 FILLER_41_55
*1407 FILLER_41_57
*1408 FILLER_41_66
*1409 FILLER_41_78
*1410 FILLER_41_8
*1411 FILLER_41_90
*1412 FILLER_42_109
*1413 FILLER_42_11
*1414 FILLER_42_121
*1415 FILLER_42_133
*1416 FILLER_42_139
*1417 FILLER_42_141
*1418 FILLER_42_153
*1419 FILLER_42_165
*1420 FILLER_42_177
*1421 FILLER_42_189
*1422 FILLER_42_195
*1423 FILLER_42_197
*1424 FILLER_42_209
*1425 FILLER_42_221
*1426 FILLER_42_23
*1427 FILLER_42_233
*1428 FILLER_42_245
*1429 FILLER_42_251
*1430 FILLER_42_253
*1431 FILLER_42_265
*1432 FILLER_42_27
*1433 FILLER_42_277
*1434 FILLER_42_289
*1435 FILLER_42_29
*1436 FILLER_42_297
*1437 FILLER_42_3
*1438 FILLER_42_39
*1439 FILLER_42_51
*1440 FILLER_42_63
*1441 FILLER_42_7
*1442 FILLER_42_75
*1443 FILLER_42_83
*1444 FILLER_42_85
*1445 FILLER_42_97
*1446 FILLER_43_105
*1447 FILLER_43_111
*1448 FILLER_43_113
*1449 FILLER_43_125
*1450 FILLER_43_137
*1451 FILLER_43_149
*1452 FILLER_43_15
*1453 FILLER_43_161
*1454 FILLER_43_167
*1455 FILLER_43_169
*1456 FILLER_43_181
*1457 FILLER_43_193
*1458 FILLER_43_205
*1459 FILLER_43_217
*1460 FILLER_43_223
*1461 FILLER_43_225
*1462 FILLER_43_237
*1463 FILLER_43_249
*1464 FILLER_43_261
*1465 FILLER_43_27
*1466 FILLER_43_273
*1467 FILLER_43_279
*1468 FILLER_43_281
*1469 FILLER_43_293
*1470 FILLER_43_3
*1471 FILLER_43_39
*1472 FILLER_43_51
*1473 FILLER_43_55
*1474 FILLER_43_57
*1475 FILLER_43_69
*1476 FILLER_43_81
*1477 FILLER_43_93
*1478 FILLER_44_109
*1479 FILLER_44_121
*1480 FILLER_44_133
*1481 FILLER_44_139
*1482 FILLER_44_141
*1483 FILLER_44_15
*1484 FILLER_44_153
*1485 FILLER_44_165
*1486 FILLER_44_177
*1487 FILLER_44_189
*1488 FILLER_44_195
*1489 FILLER_44_197
*1490 FILLER_44_209
*1491 FILLER_44_221
*1492 FILLER_44_233
*1493 FILLER_44_245
*1494 FILLER_44_251
*1495 FILLER_44_253
*1496 FILLER_44_265
*1497 FILLER_44_27
*1498 FILLER_44_277
*1499 FILLER_44_289
*1500 FILLER_44_29
*1501 FILLER_44_297
*1502 FILLER_44_3
*1503 FILLER_44_41
*1504 FILLER_44_53
*1505 FILLER_44_65
*1506 FILLER_44_77
*1507 FILLER_44_83
*1508 FILLER_44_85
*1509 FILLER_44_97
*1510 FILLER_45_10
*1511 FILLER_45_105
*1512 FILLER_45_111
*1513 FILLER_45_113
*1514 FILLER_45_125
*1515 FILLER_45_137
*1516 FILLER_45_149
*1517 FILLER_45_161
*1518 FILLER_45_167
*1519 FILLER_45_169
*1520 FILLER_45_181
*1521 FILLER_45_193
*1522 FILLER_45_205
*1523 FILLER_45_217
*1524 FILLER_45_22
*1525 FILLER_45_223
*1526 FILLER_45_225
*1527 FILLER_45_237
*1528 FILLER_45_249
*1529 FILLER_45_261
*1530 FILLER_45_273
*1531 FILLER_45_279
*1532 FILLER_45_281
*1533 FILLER_45_293
*1534 FILLER_45_3
*1535 FILLER_45_34
*1536 FILLER_45_46
*1537 FILLER_45_54
*1538 FILLER_45_57
*1539 FILLER_45_69
*1540 FILLER_45_81
*1541 FILLER_45_93
*1542 FILLER_46_109
*1543 FILLER_46_121
*1544 FILLER_46_133
*1545 FILLER_46_139
*1546 FILLER_46_141
*1547 FILLER_46_15
*1548 FILLER_46_153
*1549 FILLER_46_165
*1550 FILLER_46_177
*1551 FILLER_46_189
*1552 FILLER_46_195
*1553 FILLER_46_197
*1554 FILLER_46_209
*1555 FILLER_46_221
*1556 FILLER_46_233
*1557 FILLER_46_245
*1558 FILLER_46_251
*1559 FILLER_46_253
*1560 FILLER_46_265
*1561 FILLER_46_27
*1562 FILLER_46_277
*1563 FILLER_46_289
*1564 FILLER_46_29
*1565 FILLER_46_297
*1566 FILLER_46_3
*1567 FILLER_46_41
*1568 FILLER_46_53
*1569 FILLER_46_65
*1570 FILLER_46_77
*1571 FILLER_46_83
*1572 FILLER_46_85
*1573 FILLER_46_97
*1574 FILLER_47_105
*1575 FILLER_47_111
*1576 FILLER_47_113
*1577 FILLER_47_125
*1578 FILLER_47_137
*1579 FILLER_47_149
*1580 FILLER_47_15
*1581 FILLER_47_161
*1582 FILLER_47_167
*1583 FILLER_47_169
*1584 FILLER_47_181
*1585 FILLER_47_193
*1586 FILLER_47_205
*1587 FILLER_47_217
*1588 FILLER_47_22
*1589 FILLER_47_223
*1590 FILLER_47_225
*1591 FILLER_47_237
*1592 FILLER_47_249
*1593 FILLER_47_261
*1594 FILLER_47_273
*1595 FILLER_47_279
*1596 FILLER_47_281
*1597 FILLER_47_293
*1598 FILLER_47_3
*1599 FILLER_47_34
*1600 FILLER_47_46
*1601 FILLER_47_54
*1602 FILLER_47_57
*1603 FILLER_47_69
*1604 FILLER_47_81
*1605 FILLER_47_93
*1606 FILLER_48_109
*1607 FILLER_48_121
*1608 FILLER_48_133
*1609 FILLER_48_139
*1610 FILLER_48_141
*1611 FILLER_48_15
*1612 FILLER_48_153
*1613 FILLER_48_165
*1614 FILLER_48_177
*1615 FILLER_48_189
*1616 FILLER_48_195
*1617 FILLER_48_197
*1618 FILLER_48_209
*1619 FILLER_48_221
*1620 FILLER_48_233
*1621 FILLER_48_245
*1622 FILLER_48_251
*1623 FILLER_48_253
*1624 FILLER_48_265
*1625 FILLER_48_27
*1626 FILLER_48_277
*1627 FILLER_48_289
*1628 FILLER_48_29
*1629 FILLER_48_297
*1630 FILLER_48_3
*1631 FILLER_48_41
*1632 FILLER_48_53
*1633 FILLER_48_65
*1634 FILLER_48_77
*1635 FILLER_48_83
*1636 FILLER_48_85
*1637 FILLER_48_97
*1638 FILLER_49_105
*1639 FILLER_49_111
*1640 FILLER_49_113
*1641 FILLER_49_125
*1642 FILLER_49_137
*1643 FILLER_49_149
*1644 FILLER_49_15
*1645 FILLER_49_161
*1646 FILLER_49_167
*1647 FILLER_49_169
*1648 FILLER_49_181
*1649 FILLER_49_193
*1650 FILLER_49_205
*1651 FILLER_49_217
*1652 FILLER_49_223
*1653 FILLER_49_225
*1654 FILLER_49_237
*1655 FILLER_49_249
*1656 FILLER_49_261
*1657 FILLER_49_27
*1658 FILLER_49_273
*1659 FILLER_49_279
*1660 FILLER_49_281
*1661 FILLER_49_293
*1662 FILLER_49_3
*1663 FILLER_49_39
*1664 FILLER_49_51
*1665 FILLER_49_55