*SPEF "ieee 1481-1999"
*DESIGN "user_module_341178154799333971"
*DATE "11:11:11 Fri 11 11, 1111"
*VENDOR "OpenRCX"
*PROGRAM "Parallel Extraction"
*VERSION "1.0"
*DESIGN_FLOW "NAME_SCOPE LOCAL" "PIN_CAP NONE"
*DIVIDER /
*DELIMITER :
*BUS_DELIMITER []
*T_UNIT 1 NS
*C_UNIT 1 PF
*R_UNIT 1 OHM
*L_UNIT 1 HENRY

*NAME_MAP
*1 io_in[0]
*2 io_in[1]
*3 io_in[2]
*4 io_in[3]
*5 io_in[4]
*6 io_in[5]
*7 io_in[6]
*8 io_in[7]
*9 io_out[0]
*10 io_out[1]
*11 io_out[2]
*12 io_out[3]
*13 io_out[4]
*14 io_out[5]
*15 io_out[6]
*16 io_out[7]
*19 _00_
*20 _01_
*21 _02_
*22 _03_
*23 _04_
*24 _05_
*25 _06_
*26 _07_
*27 _08_
*28 _09_
*29 clknet_0_io_in[0]
*30 clknet_1_0__leaf_io_in[0]
*31 clknet_1_1__leaf_io_in[0]
*32 flipflop1\.d
*33 flipflop1\.q
*34 flipflop10\.d
*35 flipflop10\.q
*36 flipflop11\.q
*37 flipflop12\.q
*38 flipflop13\.q
*39 flipflop14\.q
*40 flipflop15\.q
*41 flipflop2\.d
*42 flipflop2\.q
*43 flipflop3\.q
*44 flipflop4\.q
*45 flipflop5\.q
*46 flipflop6\.d
*47 flipflop6\.q
*48 flipflop8\.q
*49 net1
*50 net10
*51 net2
*52 net3
*53 net4
*54 net5
*55 net6
*56 net7
*57 net8
*58 net9
*59 FILLER_0_109
*60 FILLER_0_113
*61 FILLER_0_125
*62 FILLER_0_137
*63 FILLER_0_141
*64 FILLER_0_153
*65 FILLER_0_165
*66 FILLER_0_169
*67 FILLER_0_181
*68 FILLER_0_193
*69 FILLER_0_197
*70 FILLER_0_209
*71 FILLER_0_221
*72 FILLER_0_225
*73 FILLER_0_237
*74 FILLER_0_24
*75 FILLER_0_249
*76 FILLER_0_253
*77 FILLER_0_265
*78 FILLER_0_277
*79 FILLER_0_281
*80 FILLER_0_29
*81 FILLER_0_293
*82 FILLER_0_3
*83 FILLER_0_48
*84 FILLER_0_7
*85 FILLER_0_73
*86 FILLER_0_81
*87 FILLER_0_85
*88 FILLER_0_97
*89 FILLER_10_109
*90 FILLER_10_121
*91 FILLER_10_133
*92 FILLER_10_139
*93 FILLER_10_141
*94 FILLER_10_15
*95 FILLER_10_153
*96 FILLER_10_165
*97 FILLER_10_177
*98 FILLER_10_189
*99 FILLER_10_195
*100 FILLER_10_197
*101 FILLER_10_209
*102 FILLER_10_221
*103 FILLER_10_233
*104 FILLER_10_245
*105 FILLER_10_251
*106 FILLER_10_253
*107 FILLER_10_265
*108 FILLER_10_27
*109 FILLER_10_277
*110 FILLER_10_289
*111 FILLER_10_29
*112 FILLER_10_297
*113 FILLER_10_3
*114 FILLER_10_41
*115 FILLER_10_59
*116 FILLER_10_69
*117 FILLER_10_81
*118 FILLER_10_85
*119 FILLER_10_97
*120 FILLER_11_100
*121 FILLER_11_113
*122 FILLER_11_125
*123 FILLER_11_137
*124 FILLER_11_149
*125 FILLER_11_15
*126 FILLER_11_161
*127 FILLER_11_167
*128 FILLER_11_169
*129 FILLER_11_181
*130 FILLER_11_193
*131 FILLER_11_205
*132 FILLER_11_217
*133 FILLER_11_223
*134 FILLER_11_225
*135 FILLER_11_237
*136 FILLER_11_249
*137 FILLER_11_261
*138 FILLER_11_27
*139 FILLER_11_273
*140 FILLER_11_279
*141 FILLER_11_281
*142 FILLER_11_293
*143 FILLER_11_3
*144 FILLER_11_39
*145 FILLER_11_51
*146 FILLER_11_55
*147 FILLER_11_57
*148 FILLER_11_64
*149 FILLER_11_76
*150 FILLER_11_88
*151 FILLER_12_109
*152 FILLER_12_121
*153 FILLER_12_133
*154 FILLER_12_139
*155 FILLER_12_141
*156 FILLER_12_15
*157 FILLER_12_153
*158 FILLER_12_165
*159 FILLER_12_177
*160 FILLER_12_189
*161 FILLER_12_195
*162 FILLER_12_197
*163 FILLER_12_209
*164 FILLER_12_221
*165 FILLER_12_233
*166 FILLER_12_245
*167 FILLER_12_251
*168 FILLER_12_253
*169 FILLER_12_265
*170 FILLER_12_27
*171 FILLER_12_277
*172 FILLER_12_289
*173 FILLER_12_297
*174 FILLER_12_3
*175 FILLER_12_37
*176 FILLER_12_49
*177 FILLER_12_61
*178 FILLER_12_73
*179 FILLER_12_81
*180 FILLER_12_85
*181 FILLER_12_97
*182 FILLER_13_105
*183 FILLER_13_111
*184 FILLER_13_113
*185 FILLER_13_125
*186 FILLER_13_137
*187 FILLER_13_149
*188 FILLER_13_15
*189 FILLER_13_161
*190 FILLER_13_167
*191 FILLER_13_169
*192 FILLER_13_181
*193 FILLER_13_193
*194 FILLER_13_205
*195 FILLER_13_217
*196 FILLER_13_22
*197 FILLER_13_223
*198 FILLER_13_225
*199 FILLER_13_237
*200 FILLER_13_249
*201 FILLER_13_261
*202 FILLER_13_273
*203 FILLER_13_279
*204 FILLER_13_281
*205 FILLER_13_293
*206 FILLER_13_3
*207 FILLER_13_34
*208 FILLER_13_46
*209 FILLER_13_54
*210 FILLER_13_57
*211 FILLER_13_69
*212 FILLER_13_7
*213 FILLER_13_81
*214 FILLER_13_93
*215 FILLER_14_109
*216 FILLER_14_121
*217 FILLER_14_133
*218 FILLER_14_139
*219 FILLER_14_141
*220 FILLER_14_15
*221 FILLER_14_153
*222 FILLER_14_165
*223 FILLER_14_177
*224 FILLER_14_189
*225 FILLER_14_195
*226 FILLER_14_197
*227 FILLER_14_209
*228 FILLER_14_221
*229 FILLER_14_233
*230 FILLER_14_245
*231 FILLER_14_251
*232 FILLER_14_253
*233 FILLER_14_265
*234 FILLER_14_27
*235 FILLER_14_277
*236 FILLER_14_289
*237 FILLER_14_29
*238 FILLER_14_297
*239 FILLER_14_3
*240 FILLER_14_41
*241 FILLER_14_53
*242 FILLER_14_65
*243 FILLER_14_77
*244 FILLER_14_83
*245 FILLER_14_85
*246 FILLER_14_97
*247 FILLER_15_105
*248 FILLER_15_111
*249 FILLER_15_113
*250 FILLER_15_125
*251 FILLER_15_137
*252 FILLER_15_149
*253 FILLER_15_15
*254 FILLER_15_161
*255 FILLER_15_167
*256 FILLER_15_169
*257 FILLER_15_181
*258 FILLER_15_193
*259 FILLER_15_205
*260 FILLER_15_217
*261 FILLER_15_223
*262 FILLER_15_225
*263 FILLER_15_237
*264 FILLER_15_249
*265 FILLER_15_261
*266 FILLER_15_27
*267 FILLER_15_273
*268 FILLER_15_279
*269 FILLER_15_281
*270 FILLER_15_293
*271 FILLER_15_3
*272 FILLER_15_39
*273 FILLER_15_51
*274 FILLER_15_55
*275 FILLER_15_57
*276 FILLER_15_69
*277 FILLER_15_81
*278 FILLER_15_93
*279 FILLER_16_109
*280 FILLER_16_121
*281 FILLER_16_133
*282 FILLER_16_139
*283 FILLER_16_141
*284 FILLER_16_15
*285 FILLER_16_153
*286 FILLER_16_165
*287 FILLER_16_177
*288 FILLER_16_189
*289 FILLER_16_195
*290 FILLER_16_197
*291 FILLER_16_209
*292 FILLER_16_22
*293 FILLER_16_221
*294 FILLER_16_233
*295 FILLER_16_245
*296 FILLER_16_251
*297 FILLER_16_253
*298 FILLER_16_265
*299 FILLER_16_277
*300 FILLER_16_289
*301 FILLER_16_29
*302 FILLER_16_297
*303 FILLER_16_3
*304 FILLER_16_41
*305 FILLER_16_53
*306 FILLER_16_65
*307 FILLER_16_77
*308 FILLER_16_83
*309 FILLER_16_85
*310 FILLER_16_97
*311 FILLER_17_105
*312 FILLER_17_111
*313 FILLER_17_113
*314 FILLER_17_125
*315 FILLER_17_137
*316 FILLER_17_149
*317 FILLER_17_15
*318 FILLER_17_161
*319 FILLER_17_167
*320 FILLER_17_169
*321 FILLER_17_181
*322 FILLER_17_193
*323 FILLER_17_205
*324 FILLER_17_217
*325 FILLER_17_223
*326 FILLER_17_225
*327 FILLER_17_237
*328 FILLER_17_249
*329 FILLER_17_25
*330 FILLER_17_261
*331 FILLER_17_273
*332 FILLER_17_279
*333 FILLER_17_281
*334 FILLER_17_293
*335 FILLER_17_3
*336 FILLER_17_37
*337 FILLER_17_49
*338 FILLER_17_55
*339 FILLER_17_57
*340 FILLER_17_69
*341 FILLER_17_81
*342 FILLER_17_93
*343 FILLER_18_109
*344 FILLER_18_11
*345 FILLER_18_121
*346 FILLER_18_133
*347 FILLER_18_139
*348 FILLER_18_141
*349 FILLER_18_153
*350 FILLER_18_165
*351 FILLER_18_177
*352 FILLER_18_189
*353 FILLER_18_19
*354 FILLER_18_195
*355 FILLER_18_197
*356 FILLER_18_209
*357 FILLER_18_221
*358 FILLER_18_233
*359 FILLER_18_245
*360 FILLER_18_251
*361 FILLER_18_253
*362 FILLER_18_265
*363 FILLER_18_27
*364 FILLER_18_277
*365 FILLER_18_289
*366 FILLER_18_29
*367 FILLER_18_297
*368 FILLER_18_3
*369 FILLER_18_36
*370 FILLER_18_48
*371 FILLER_18_60
*372 FILLER_18_72
*373 FILLER_18_85
*374 FILLER_18_97
*375 FILLER_19_105
*376 FILLER_19_111
*377 FILLER_19_113
*378 FILLER_19_125
*379 FILLER_19_137
*380 FILLER_19_149
*381 FILLER_19_15
*382 FILLER_19_161
*383 FILLER_19_167
*384 FILLER_19_169
*385 FILLER_19_181
*386 FILLER_19_193
*387 FILLER_19_205
*388 FILLER_19_21
*389 FILLER_19_217
*390 FILLER_19_223
*391 FILLER_19_225
*392 FILLER_19_237
*393 FILLER_19_249
*394 FILLER_19_261
*395 FILLER_19_273
*396 FILLER_19_279
*397 FILLER_19_281
*398 FILLER_19_29
*399 FILLER_19_293
*400 FILLER_19_3
*401 FILLER_19_41
*402 FILLER_19_53
*403 FILLER_19_57
*404 FILLER_19_69
*405 FILLER_19_81
*406 FILLER_19_93
*407 FILLER_1_105
*408 FILLER_1_111
*409 FILLER_1_113
*410 FILLER_1_12
*411 FILLER_1_125
*412 FILLER_1_137
*413 FILLER_1_149
*414 FILLER_1_161
*415 FILLER_1_167
*416 FILLER_1_169
*417 FILLER_1_181
*418 FILLER_1_193
*419 FILLER_1_205
*420 FILLER_1_217
*421 FILLER_1_223
*422 FILLER_1_225
*423 FILLER_1_237
*424 FILLER_1_249
*425 FILLER_1_261
*426 FILLER_1_273
*427 FILLER_1_279
*428 FILLER_1_281
*429 FILLER_1_293
*430 FILLER_1_3
*431 FILLER_1_36
*432 FILLER_1_52
*433 FILLER_1_73
*434 FILLER_1_93
*435 FILLER_20_109
*436 FILLER_20_121
*437 FILLER_20_133
*438 FILLER_20_139
*439 FILLER_20_141
*440 FILLER_20_15
*441 FILLER_20_153
*442 FILLER_20_165
*443 FILLER_20_177
*444 FILLER_20_189
*445 FILLER_20_195
*446 FILLER_20_197
*447 FILLER_20_209
*448 FILLER_20_221
*449 FILLER_20_233
*450 FILLER_20_245
*451 FILLER_20_251
*452 FILLER_20_253
*453 FILLER_20_265
*454 FILLER_20_27
*455 FILLER_20_277
*456 FILLER_20_289
*457 FILLER_20_29
*458 FILLER_20_297
*459 FILLER_20_3
*460 FILLER_20_41
*461 FILLER_20_53
*462 FILLER_20_65
*463 FILLER_20_77
*464 FILLER_20_83
*465 FILLER_20_85
*466 FILLER_20_97
*467 FILLER_21_105
*468 FILLER_21_111
*469 FILLER_21_113
*470 FILLER_21_125
*471 FILLER_21_137
*472 FILLER_21_149
*473 FILLER_21_15
*474 FILLER_21_161
*475 FILLER_21_167
*476 FILLER_21_169
*477 FILLER_21_181
*478 FILLER_21_193
*479 FILLER_21_205
*480 FILLER_21_217
*481 FILLER_21_223
*482 FILLER_21_225
*483 FILLER_21_237
*484 FILLER_21_249
*485 FILLER_21_261
*486 FILLER_21_27
*487 FILLER_21_273
*488 FILLER_21_279
*489 FILLER_21_281
*490 FILLER_21_293
*491 FILLER_21_3
*492 FILLER_21_39
*493 FILLER_21_51
*494 FILLER_21_55
*495 FILLER_21_57
*496 FILLER_21_69
*497 FILLER_21_81
*498 FILLER_21_93
*499 FILLER_22_109
*500 FILLER_22_121
*501 FILLER_22_133
*502 FILLER_22_139
*503 FILLER_22_141
*504 FILLER_22_15
*505 FILLER_22_153
*506 FILLER_22_165
*507 FILLER_22_177
*508 FILLER_22_189
*509 FILLER_22_195
*510 FILLER_22_197
*511 FILLER_22_209
*512 FILLER_22_221
*513 FILLER_22_233
*514 FILLER_22_245
*515 FILLER_22_251
*516 FILLER_22_253
*517 FILLER_22_265
*518 FILLER_22_27
*519 FILLER_22_277
*520 FILLER_22_289
*521 FILLER_22_29
*522 FILLER_22_297
*523 FILLER_22_3
*524 FILLER_22_41
*525 FILLER_22_53
*526 FILLER_22_65
*527 FILLER_22_77
*528 FILLER_22_83
*529 FILLER_22_85
*530 FILLER_22_97
*531 FILLER_23_105
*532 FILLER_23_111
*533 FILLER_23_113
*534 FILLER_23_125
*535 FILLER_23_137
*536 FILLER_23_149
*537 FILLER_23_15
*538 FILLER_23_161
*539 FILLER_23_167
*540 FILLER_23_169
*541 FILLER_23_181
*542 FILLER_23_193
*543 FILLER_23_205
*544 FILLER_23_217
*545 FILLER_23_223
*546 FILLER_23_225
*547 FILLER_23_237
*548 FILLER_23_249
*549 FILLER_23_261
*550 FILLER_23_27
*551 FILLER_23_273
*552 FILLER_23_279
*553 FILLER_23_281
*554 FILLER_23_293
*555 FILLER_23_3
*556 FILLER_23_39
*557 FILLER_23_51
*558 FILLER_23_55
*559 FILLER_23_57
*560 FILLER_23_69
*561 FILLER_23_81
*562 FILLER_23_93
*563 FILLER_24_109
*564 FILLER_24_121
*565 FILLER_24_133
*566 FILLER_24_139
*567 FILLER_24_141
*568 FILLER_24_15
*569 FILLER_24_153
*570 FILLER_24_165
*571 FILLER_24_177
*572 FILLER_24_189
*573 FILLER_24_195
*574 FILLER_24_197
*575 FILLER_24_209
*576 FILLER_24_221
*577 FILLER_24_233
*578 FILLER_24_245
*579 FILLER_24_251
*580 FILLER_24_253
*581 FILLER_24_265
*582 FILLER_24_27
*583 FILLER_24_277
*584 FILLER_24_289
*585 FILLER_24_29
*586 FILLER_24_297
*587 FILLER_24_3
*588 FILLER_24_41
*589 FILLER_24_53
*590 FILLER_24_65
*591 FILLER_24_77
*592 FILLER_24_83
*593 FILLER_24_85
*594 FILLER_24_97
*595 FILLER_25_105
*596 FILLER_25_111
*597 FILLER_25_113
*598 FILLER_25_125
*599 FILLER_25_137
*600 FILLER_25_149
*601 FILLER_25_15
*602 FILLER_25_161
*603 FILLER_25_167
*604 FILLER_25_169
*605 FILLER_25_181
*606 FILLER_25_193
*607 FILLER_25_205
*608 FILLER_25_217
*609 FILLER_25_223
*610 FILLER_25_225
*611 FILLER_25_23
*612 FILLER_25_237
*613 FILLER_25_249
*614 FILLER_25_261
*615 FILLER_25_273
*616 FILLER_25_279
*617 FILLER_25_281
*618 FILLER_25_293
*619 FILLER_25_3
*620 FILLER_25_35
*621 FILLER_25_47
*622 FILLER_25_55
*623 FILLER_25_57
*624 FILLER_25_69
*625 FILLER_25_81
*626 FILLER_25_93
*627 FILLER_26_109
*628 FILLER_26_11
*629 FILLER_26_121
*630 FILLER_26_133
*631 FILLER_26_139
*632 FILLER_26_141
*633 FILLER_26_153
*634 FILLER_26_16
*635 FILLER_26_165
*636 FILLER_26_177
*637 FILLER_26_189
*638 FILLER_26_195
*639 FILLER_26_197
*640 FILLER_26_209
*641 FILLER_26_221
*642 FILLER_26_233
*643 FILLER_26_245
*644 FILLER_26_251
*645 FILLER_26_253
*646 FILLER_26_265
*647 FILLER_26_277
*648 FILLER_26_289
*649 FILLER_26_29
*650 FILLER_26_297
*651 FILLER_26_3
*652 FILLER_26_41
*653 FILLER_26_53
*654 FILLER_26_65
*655 FILLER_26_77
*656 FILLER_26_83
*657 FILLER_26_85
*658 FILLER_26_97
*659 FILLER_27_105
*660 FILLER_27_111
*661 FILLER_27_113
*662 FILLER_27_125
*663 FILLER_27_137
*664 FILLER_27_149
*665 FILLER_27_15
*666 FILLER_27_161
*667 FILLER_27_167
*668 FILLER_27_169
*669 FILLER_27_181
*670 FILLER_27_193
*671 FILLER_27_205
*672 FILLER_27_217
*673 FILLER_27_223
*674 FILLER_27_225
*675 FILLER_27_237
*676 FILLER_27_249
*677 FILLER_27_261
*678 FILLER_27_27
*679 FILLER_27_273
*680 FILLER_27_279
*681 FILLER_27_281
*682 FILLER_27_293
*683 FILLER_27_3
*684 FILLER_27_39
*685 FILLER_27_51
*686 FILLER_27_55
*687 FILLER_27_57
*688 FILLER_27_69
*689 FILLER_27_81
*690 FILLER_27_93
*691 FILLER_28_109
*692 FILLER_28_121
*693 FILLER_28_133
*694 FILLER_28_139
*695 FILLER_28_141
*696 FILLER_28_15
*697 FILLER_28_153
*698 FILLER_28_165
*699 FILLER_28_177
*700 FILLER_28_189
*701 FILLER_28_195
*702 FILLER_28_197
*703 FILLER_28_209
*704 FILLER_28_221
*705 FILLER_28_233
*706 FILLER_28_245
*707 FILLER_28_251
*708 FILLER_28_253
*709 FILLER_28_265
*710 FILLER_28_27
*711 FILLER_28_277
*712 FILLER_28_289
*713 FILLER_28_29
*714 FILLER_28_297
*715 FILLER_28_3
*716 FILLER_28_41
*717 FILLER_28_53
*718 FILLER_28_65
*719 FILLER_28_77
*720 FILLER_28_83
*721 FILLER_28_85
*722 FILLER_28_97
*723 FILLER_29_105
*724 FILLER_29_111
*725 FILLER_29_113
*726 FILLER_29_125
*727 FILLER_29_137
*728 FILLER_29_149
*729 FILLER_29_15
*730 FILLER_29_161
*731 FILLER_29_167
*732 FILLER_29_169
*733 FILLER_29_181
*734 FILLER_29_193
*735 FILLER_29_205
*736 FILLER_29_217
*737 FILLER_29_223
*738 FILLER_29_225
*739 FILLER_29_237
*740 FILLER_29_249
*741 FILLER_29_261
*742 FILLER_29_27
*743 FILLER_29_273
*744 FILLER_29_279
*745 FILLER_29_281
*746 FILLER_29_293
*747 FILLER_29_3
*748 FILLER_29_39
*749 FILLER_29_51
*750 FILLER_29_55
*751 FILLER_29_57
*752 FILLER_29_69
*753 FILLER_29_81
*754 FILLER_29_93
*755 FILLER_2_109
*756 FILLER_2_121
*757 FILLER_2_133
*758 FILLER_2_139
*759 FILLER_2_141
*760 FILLER_2_153
*761 FILLER_2_165
*762 FILLER_2_177
*763 FILLER_2_189
*764 FILLER_2_195
*765 FILLER_2_197
*766 FILLER_2_209
*767 FILLER_2_21
*768 FILLER_2_221
*769 FILLER_2_233
*770 FILLER_2_245
*771 FILLER_2_251
*772 FILLER_2_253
*773 FILLER_2_265
*774 FILLER_2_27
*775 FILLER_2_277
*776 FILLER_2_289
*777 FILLER_2_297
*778 FILLER_2_3
*779 FILLER_2_32
*780 FILLER_2_44
*781 FILLER_2_64
*782 FILLER_2_76
*783 FILLER_2_85
*784 FILLER_2_91
*785 FILLER_2_97
*786 FILLER_30_109
*787 FILLER_30_121
*788 FILLER_30_133
*789 FILLER_30_139
*790 FILLER_30_141
*791 FILLER_30_15
*792 FILLER_30_153
*793 FILLER_30_165
*794 FILLER_30_177
*795 FILLER_30_189
*796 FILLER_30_195
*797 FILLER_30_197
*798 FILLER_30_209
*799 FILLER_30_221
*800 FILLER_30_233
*801 FILLER_30_245
*802 FILLER_30_251
*803 FILLER_30_253
*804 FILLER_30_265
*805 FILLER_30_27
*806 FILLER_30_277
*807 FILLER_30_289
*808 FILLER_30_29
*809 FILLER_30_297
*810 FILLER_30_3
*811 FILLER_30_41
*812 FILLER_30_53
*813 FILLER_30_65
*814 FILLER_30_77
*815 FILLER_30_83
*816 FILLER_30_85
*817 FILLER_30_97
*818 FILLER_31_105
*819 FILLER_31_111
*820 FILLER_31_113
*821 FILLER_31_125
*822 FILLER_31_137
*823 FILLER_31_149
*824 FILLER_31_15
*825 FILLER_31_161
*826 FILLER_31_167
*827 FILLER_31_169
*828 FILLER_31_181
*829 FILLER_31_193
*830 FILLER_31_205
*831 FILLER_31_217
*832 FILLER_31_223
*833 FILLER_31_225
*834 FILLER_31_237
*835 FILLER_31_249
*836 FILLER_31_261
*837 FILLER_31_27
*838 FILLER_31_273
*839 FILLER_31_279
*840 FILLER_31_281
*841 FILLER_31_293
*842 FILLER_31_3
*843 FILLER_31_39
*844 FILLER_31_46
*845 FILLER_31_54
*846 FILLER_31_57
*847 FILLER_31_69
*848 FILLER_31_81
*849 FILLER_31_93
*850 FILLER_32_109
*851 FILLER_32_121
*852 FILLER_32_133
*853 FILLER_32_139
*854 FILLER_32_141
*855 FILLER_32_15
*856 FILLER_32_153
*857 FILLER_32_165
*858 FILLER_32_177
*859 FILLER_32_189
*860 FILLER_32_195
*861 FILLER_32_197
*862 FILLER_32_209
*863 FILLER_32_221
*864 FILLER_32_233
*865 FILLER_32_245
*866 FILLER_32_251
*867 FILLER_32_253
*868 FILLER_32_265
*869 FILLER_32_27
*870 FILLER_32_277
*871 FILLER_32_289
*872 FILLER_32_29
*873 FILLER_32_297
*874 FILLER_32_3
*875 FILLER_32_41
*876 FILLER_32_53
*877 FILLER_32_65
*878 FILLER_32_77
*879 FILLER_32_83
*880 FILLER_32_85
*881 FILLER_32_97
*882 FILLER_33_105
*883 FILLER_33_111
*884 FILLER_33_113
*885 FILLER_33_125
*886 FILLER_33_137
*887 FILLER_33_149
*888 FILLER_33_15
*889 FILLER_33_161
*890 FILLER_33_167
*891 FILLER_33_169
*892 FILLER_33_181
*893 FILLER_33_193
*894 FILLER_33_205
*895 FILLER_33_217
*896 FILLER_33_223
*897 FILLER_33_225
*898 FILLER_33_237
*899 FILLER_33_249
*900 FILLER_33_261
*901 FILLER_33_27
*902 FILLER_33_273
*903 FILLER_33_279
*904 FILLER_33_281
*905 FILLER_33_293
*906 FILLER_33_3
*907 FILLER_33_39
*908 FILLER_33_51
*909 FILLER_33_55
*910 FILLER_33_57
*911 FILLER_33_69
*912 FILLER_33_81
*913 FILLER_33_93
*914 FILLER_34_109
*915 FILLER_34_121
*916 FILLER_34_133
*917 FILLER_34_139
*918 FILLER_34_141
*919 FILLER_34_15
*920 FILLER_34_153
*921 FILLER_34_165
*922 FILLER_34_177
*923 FILLER_34_189
*924 FILLER_34_195
*925 FILLER_34_197
*926 FILLER_34_209
*927 FILLER_34_221
*928 FILLER_34_233
*929 FILLER_34_245
*930 FILLER_34_251
*931 FILLER_34_253
*932 FILLER_34_265
*933 FILLER_34_27
*934 FILLER_34_277
*935 FILLER_34_289
*936 FILLER_34_29
*937 FILLER_34_297
*938 FILLER_34_3
*939 FILLER_34_41
*940 FILLER_34_53
*941 FILLER_34_65
*942 FILLER_34_77
*943 FILLER_34_83
*944 FILLER_34_85
*945 FILLER_34_97
*946 FILLER_35_105
*947 FILLER_35_111
*948 FILLER_35_113
*949 FILLER_35_125
*950 FILLER_35_137
*951 FILLER_35_149
*952 FILLER_35_15
*953 FILLER_35_161
*954 FILLER_35_167
*955 FILLER_35_169
*956 FILLER_35_181
*957 FILLER_35_193
*958 FILLER_35_205
*959 FILLER_35_217
*960 FILLER_35_223
*961 FILLER_35_225
*962 FILLER_35_237
*963 FILLER_35_249
*964 FILLER_35_261
*965 FILLER_35_27
*966 FILLER_35_273
*967 FILLER_35_279
*968 FILLER_35_281
*969 FILLER_35_293
*970 FILLER_35_3
*971 FILLER_35_39
*972 FILLER_35_51
*973 FILLER_35_55
*974 FILLER_35_57
*975 FILLER_35_69
*976 FILLER_35_81
*977 FILLER_35_93
*978 FILLER_36_109
*979 FILLER_36_121
*980 FILLER_36_133
*981 FILLER_36_139
*982 FILLER_36_141
*983 FILLER_36_15
*984 FILLER_36_153
*985 FILLER_36_165
*986 FILLER_36_177
*987 FILLER_36_189
*988 FILLER_36_195
*989 FILLER_36_197
*990 FILLER_36_209
*991 FILLER_36_221
*992 FILLER_36_233
*993 FILLER_36_245
*994 FILLER_36_251
*995 FILLER_36_253
*996 FILLER_36_265
*997 FILLER_36_27
*998 FILLER_36_277
*999 FILLER_36_289
*1000 FILLER_36_29
*1001 FILLER_36_297
*1002 FILLER_36_3
*1003 FILLER_36_41
*1004 FILLER_36_53
*1005 FILLER_36_65
*1006 FILLER_36_77
*1007 FILLER_36_83
*1008 FILLER_36_85
*1009 FILLER_36_97
*1010 FILLER_37_105
*1011 FILLER_37_111
*1012 FILLER_37_113
*1013 FILLER_37_125
*1014 FILLER_37_137
*1015 FILLER_37_149
*1016 FILLER_37_15
*1017 FILLER_37_161
*1018 FILLER_37_167
*1019 FILLER_37_169
*1020 FILLER_37_181
*1021 FILLER_37_193
*1022 FILLER_37_205
*1023 FILLER_37_217
*1024 FILLER_37_223
*1025 FILLER_37_225
*1026 FILLER_37_237
*1027 FILLER_37_249
*1028 FILLER_37_261
*1029 FILLER_37_27
*1030 FILLER_37_273
*1031 FILLER_37_279
*1032 FILLER_37_281
*1033 FILLER_37_293
*1034 FILLER_37_3
*1035 FILLER_37_39
*1036 FILLER_37_51
*1037 FILLER_37_55
*1038 FILLER_37_57
*1039 FILLER_37_69
*1040 FILLER_37_81
*1041 FILLER_37_93
*1042 FILLER_38_109
*1043 FILLER_38_121
*1044 FILLER_38_133
*1045 FILLER_38_139
*1046 FILLER_38_141
*1047 FILLER_38_15
*1048 FILLER_38_153
*1049 FILLER_38_165
*1050 FILLER_38_177
*1051 FILLER_38_189
*1052 FILLER_38_195
*1053 FILLER_38_197
*1054 FILLER_38_209
*1055 FILLER_38_221
*1056 FILLER_38_233
*1057 FILLER_38_245
*1058 FILLER_38_251
*1059 FILLER_38_253
*1060 FILLER_38_265
*1061 FILLER_38_27
*1062 FILLER_38_277
*1063 FILLER_38_289
*1064 FILLER_38_29
*1065 FILLER_38_297
*1066 FILLER_38_3
*1067 FILLER_38_41
*1068 FILLER_38_53
*1069 FILLER_38_65
*1070 FILLER_38_77
*1071 FILLER_38_83
*1072 FILLER_38_85
*1073 FILLER_38_97
*1074 FILLER_39_105
*1075 FILLER_39_111
*1076 FILLER_39_113
*1077 FILLER_39_125
*1078 FILLER_39_137
*1079 FILLER_39_149
*1080 FILLER_39_15
*1081 FILLER_39_161
*1082 FILLER_39_167
*1083 FILLER_39_169
*1084 FILLER_39_181
*1085 FILLER_39_193
*1086 FILLER_39_205
*1087 FILLER_39_217
*1088 FILLER_39_223
*1089 FILLER_39_225
*1090 FILLER_39_237
*1091 FILLER_39_249
*1092 FILLER_39_261
*1093 FILLER_39_27
*1094 FILLER_39_273
*1095 FILLER_39_279
*1096 FILLER_39_281
*1097 FILLER_39_293
*1098 FILLER_39_3
*1099 FILLER_39_39
*1100 FILLER_39_51
*1101 FILLER_39_55
*1102 FILLER_39_57
*1103 FILLER_39_69
*1104 FILLER_39_81
*1105 FILLER_39_93
*1106 FILLER_3_109
*1107 FILLER_3_113
*1108 FILLER_3_125
*1109 FILLER_3_137
*1110 FILLER_3_149
*1111 FILLER_3_161
*1112 FILLER_3_167
*1113 FILLER_3_169
*1114 FILLER_3_181
*1115 FILLER_3_193
*1116 FILLER_3_205
*1117 FILLER_3_217
*1118 FILLER_3_22
*1119 FILLER_3_223
*1120 FILLER_3_225
*1121 FILLER_3_237
*1122 FILLER_3_249
*1123 FILLER_3_261
*1124 FILLER_3_273
*1125 FILLER_3_279
*1126 FILLER_3_281
*1127 FILLER_3_293
*1128 FILLER_3_3
*1129 FILLER_3_30
*1130 FILLER_3_48
*1131 FILLER_3_73
*1132 FILLER_3_85
*1133 FILLER_3_97
*1134 FILLER_40_109
*1135 FILLER_40_121
*1136 FILLER_40_133
*1137 FILLER_40_139
*1138 FILLER_40_141
*1139 FILLER_40_15
*1140 FILLER_40_153
*1141 FILLER_40_165
*1142 FILLER_40_177
*1143 FILLER_40_189
*1144 FILLER_40_195
*1145 FILLER_40_197
*1146 FILLER_40_209
*1147 FILLER_40_221
*1148 FILLER_40_233
*1149 FILLER_40_245
*1150 FILLER_40_251
*1151 FILLER_40_253
*1152 FILLER_40_265
*1153 FILLER_40_27
*1154 FILLER_40_277
*1155 FILLER_40_289
*1156 FILLER_40_29
*1157 FILLER_40_297
*1158 FILLER_40_3
*1159 FILLER_40_41
*1160 FILLER_40_53
*1161 FILLER_40_65
*1162 FILLER_40_77
*1163 FILLER_40_83
*1164 FILLER_40_85
*1165 FILLER_40_97
*1166 FILLER_41_105
*1167 FILLER_41_111
*1168 FILLER_41_113
*1169 FILLER_41_125
*1170 FILLER_41_137
*1171 FILLER_41_149
*1172 FILLER_41_15
*1173 FILLER_41_161
*1174 FILLER_41_167
*1175 FILLER_41_169
*1176 FILLER_41_181
*1177 FILLER_41_193
*1178 FILLER_41_205
*1179 FILLER_41_217
*1180 FILLER_41_223
*1181 FILLER_41_225
*1182 FILLER_41_237
*1183 FILLER_41_249
*1184 FILLER_41_261
*1185 FILLER_41_27
*1186 FILLER_41_273
*1187 FILLER_41_279
*1188 FILLER_41_281
*1189 FILLER_41_293
*1190 FILLER_41_3
*1191 FILLER_41_39
*1192 FILLER_41_51
*1193 FILLER_41_55
*1194 FILLER_41_57
*1195 FILLER_41_69
*1196 FILLER_41_81
*1197 FILLER_41_93
*1198 FILLER_42_109
*1199 FILLER_42_121
*1200 FILLER_42_133
*1201 FILLER_42_139
*1202 FILLER_42_141
*1203 FILLER_42_15
*1204 FILLER_42_153
*1205 FILLER_42_165
*1206 FILLER_42_177
*1207 FILLER_42_189
*1208 FILLER_42_195
*1209 FILLER_42_197
*1210 FILLER_42_209
*1211 FILLER_42_221
*1212 FILLER_42_233
*1213 FILLER_42_245
*1214 FILLER_42_251
*1215 FILLER_42_253
*1216 FILLER_42_265
*1217 FILLER_42_27
*1218 FILLER_42_277
*1219 FILLER_42_289
*1220 FILLER_42_29
*1221 FILLER_42_297
*1222 FILLER_42_3
*1223 FILLER_42_41
*1224 FILLER_42_53
*1225 FILLER_42_65
*1226 FILLER_42_77
*1227 FILLER_42_83
*1228 FILLER_42_85
*1229 FILLER_42_97
*1230 FILLER_43_105
*1231 FILLER_43_111
*1232 FILLER_43_113
*1233 FILLER_43_125
*1234 FILLER_43_137
*1235 FILLER_43_149
*1236 FILLER_43_15
*1237 FILLER_43_161
*1238 FILLER_43_167
*1239 FILLER_43_169
*1240 FILLER_43_181
*1241 FILLER_43_193
*1242 FILLER_43_205
*1243 FILLER_43_217
*1244 FILLER_43_223
*1245 FILLER_43_225
*1246 FILLER_43_237
*1247 FILLER_43_249
*1248 FILLER_43_261
*1249 FILLER_43_27
*1250 FILLER_43_273
*1251 FILLER_43_279
*1252 FILLER_43_281
*1253 FILLER_43_293
*1254 FILLER_43_3
*1255 FILLER_43_39
*1256 FILLER_43_51
*1257 FILLER_43_55
*1258 FILLER_43_57
*1259 FILLER_43_69
*1260 FILLER_43_81
*1261 FILLER_43_93
*1262 FILLER_44_109
*1263 FILLER_44_121
*1264 FILLER_44_133
*1265 FILLER_44_139
*1266 FILLER_44_141
*1267 FILLER_44_15
*1268 FILLER_44_153
*1269 FILLER_44_165
*1270 FILLER_44_177
*1271 FILLER_44_189
*1272 FILLER_44_195
*1273 FILLER_44_197
*1274 FILLER_44_209
*1275 FILLER_44_221
*1276 FILLER_44_233
*1277 FILLER_44_245
*1278 FILLER_44_251
*1279 FILLER_44_253
*1280 FILLER_44_265
*1281 FILLER_44_27
*1282 FILLER_44_277
*1283 FILLER_44_289
*1284 FILLER_44_29
*1285 FILLER_44_297
*1286 FILLER_44_3
*1287 FILLER_44_41
*1288 FILLER_44_53
*1289 FILLER_44_65
*1290 FILLER_44_77
*1291 FILLER_44_83
*1292 FILLER_44_85
*1293 FILLER_44_97
*1294 FILLER_45_105
*1295 FILLER_45_111
*1296 FILLER_45_113
*1297 FILLER_45_125
*1298 FILLER_45_137
*1299 FILLER_45_149
*1300 FILLER_45_15
*1301 FILLER_45_161
*1302 FILLER_45_167
*1303 FILLER_45_169
*1304 FILLER_45_181
*1305 FILLER_45_193
*1306 FILLER_45_205
*1307 FILLER_45_217
*1308 FILLER_45_223
*1309 FILLER_45_225
*1310 FILLER_45_237
*1311 FILLER_45_249
*1312 FILLER_45_261
*1313 FILLER_45_27
*1314 FILLER_45_273
*1315 FILLER_45_279
*1316 FILLER_45_281
*1317 FILLER_45_293
*1318 FILLER_45_3
*1319 FILLER_45_39
*1320 FILLER_45_51
*1321 FILLER_45_55
*1322 FILLER_45_57
*1323 FILLER_45_69
*1324 FILLER_45_81
*1325 FILLER_45_93
*1326 FILLER_46_109
*1327 FILLER_46_121
*1328 FILLER_46_133
*1329 FILLER_46_139
*1330 FILLER_46_141
*1331 FILLER_46_15
*1332 FILLER_46_153
*1333 FILLER_46_165
*1334 FILLER_46_177
*1335 FILLER_46_189
*1336 FILLER_46_195
*1337 FILLER_46_197
*1338 FILLER_46_209
*1339 FILLER_46_221
*1340 FILLER_46_233
*1341 FILLER_46_245
*1342 FILLER_46_251
*1343 FILLER_46_253
*1344 FILLER_46_265
*1345 FILLER_46_27
*1346 FILLER_46_277
*1347 FILLER_46_289
*1348 FILLER_46_29
*1349 FILLER_46_297
*1350 FILLER_46_3
*1351 FILLER_46_41
*1352 FILLER_46_53
*1353 FILLER_46_65
*1354 FILLER_46_77
*1355 FILLER_46_83
*1356 FILLER_46_85
*1357 FILLER_46_97
*1358 FILLER_47_105
*1359 FILLER_47_111
*1360 FILLER_47_113
*1361 FILLER_47_125
*1362 FILLER_47_137
*1363 FILLER_47_149
*1364 FILLER_47_15
*1365 FILLER_47_161
*1366 FILLER_47_167
*1367 FILLER_47_169
*1368 FILLER_47_181
*1369 FILLER_47_193
*1370 FILLER_47_205
*1371 FILLER_47_217
*1372 FILLER_47_223
*1373 FILLER_47_225
*1374 FILLER_47_237
*1375 FILLER_47_249
*1376 FILLER_47_261
*1377 FILLER_47_27
*1378 FILLER_47_273
*1379 FILLER_47_279
*1380 FILLER_47_281
*1381 FILLER_47_293
*1382 FILLER_47_3
*1383 FILLER_47_39
*1384 FILLER_47_51
*1385 FILLER_47_55
*1386 FILLER_47_57
*1387 FILLER_47_69
*1388 FILLER_47_81
*1389 FILLER_47_93
*1390 FILLER_48_109
*1391 FILLER_48_121
*1392 FILLER_48_133
*1393 FILLER_48_139
*1394 FILLER_48_141
*1395 FILLER_48_15
*1396 FILLER_48_153
*1397 FILLER_48_165
*1398 FILLER_48_177
*1399 FILLER_48_189
*1400 FILLER_48_195
*1401 FILLER_48_197
*1402 FILLER_48_209
*1403 FILLER_48_221
*1404 FILLER_48_233
*1405 FILLER_48_245
*1406 FILLER_48_251
*1407 FILLER_48_253
*1408 FILLER_48_265
*1409 FILLER_48_27
*1410 FILLER_48_277
*1411 FILLER_48_289
*1412 FILLER_48_29
*1413 FILLER_48_297
*1414 FILLER_48_3
*1415 FILLER_48_41
*1416 FILLER_48_53
*1417 FILLER_48_65
*1418 FILLER_48_77
*1419 FILLER_48_83
*1420 FILLER_48_85
*1421 FILLER_48_97
*1422 FILLER_49_105
*1423 FILLER_49_111
*1424 FILLER_49_113
*1425 FILLER_49_125
*1426 FILLER_49_137
*1427 FILLER_49_149
*1428 FILLER_49_15
*1429 FILLER_49_161
*1430 FILLER_49_167
*1431 FILLER_49_169
*1432 FILLER_49_181
*1433 FILLER_49_193
*1434 FILLER_49_205
*1435 FILLER_49_217
*1436 FILLER_49_223
*1437 FILLER_49_225
*1438 FILLER_49_237
*1439 FILLER_49_249
*1440 FILLER_49_261
*1441 FILLER_49_27
*1442 FILLER_49_273
*1443 FILLER_49_279
*1444 FILLER_49_281
*1445 FILLER_49_293
*1446 FILLER_49_3
*1447 FILLER_49_39
*1448 FILLER_49_51
*1449 FILLER_49_55
*1450 FILLER_49_57
*1451 FILLER_49_69
*1452 FILLER_49_81
*1453 FILLER_49_93
*1454 FILLER_4_109
*1455 FILLER_4_121
*1456 FILLER_4_133
*1457 FILLER_4_139
*1458 FILLER_4_141
*1459 FILLER_4_153
*1460 FILLER_4_165
*1461 FILLER_4_177
*1462 FILLER_4_189
*1463 FILLER_4_195
*1464 FILLER_4_197
*1465 FILLER_4_209
*1466 FILLER_4_221
*1467 FILLER_4_233
*1468 FILLER_4_24
*1469 FILLER_4_245
*1470 FILLER_4_251
*1471 FILLER_4_253
*1472 FILLER_4_265
*1473 FILLER_4_277
*1474 FILLER_4_289
*1475 FILLER_4_29
*1476 FILLER_4_297
*1477 FILLER_4_3
*1478 FILLER_4_53
*1479 FILLER_4_65
*1480 FILLER_4_7
*1481 FILLER_4_77
*1482 FILLER_4_83
*1483 FILLER_4_85
*1484 FILLER_4_97
*1485 FILLER_50_109
*1486 FILLER_50_121
*1487 FILLER_50_133
*1488 FILLER_50_139
*1489 FILLER_50_141
*1490 FILLER_50_15
*1491 FILLER_50_153
*1492 FILLER_50_165
*1493 FILLER_50_177
*1494 FILLER_50_189
*1495 FILLER_50_195
*1496 FILLER_50_197
*1497 FILLER_50_209
*1498 FILLER_50_221
*1499 FILLER_50_233
*1500 FILLER_50_245
*1501 FILLER_50_251
*1502 FILLER_50_253
*1503 FILLER_50_265
*1504 FILLER_50_27
*1505 FILLER_50_277
*1506 FILLER_50_289
*1507 FILLER_50_29
*1508 FILLER_50_297
*1509 FILLER_50_3
*1510 FILLER_50_41
*1511 FILLER_50_53
*1512 FILLER_50_65
*1513 FILLER_50_77
*1514 FILLER_50_83
*1515 FILLER_50_85
*1516 FILLER_50_97
*1517 FILLER_51_105
*1518 FILLER_51_111
*1519 FILLER_51_113
*1520 FILLER_51_125
*1521 FILLER_51_137
*1522 FILLER_51_149
*1523 FILLER_51_15
*1524 FILLER_51_161
*1525 FILLER_51_167
*1526 FILLER_51_169
*1527 FILLER_51_181
*1528 FILLER_51_193
*1529 FILLER_51_205
*1530 FILLER_51_217
*1531 FILLER_51_223
*1532 FILLER_51_225
*1533 FILLER_51_237
*1534 FILLER_51_249
*1535 FILLER_51_261
*1536 FILLER_51_27
*1537 FILLER_51_273
*1538 FILLER_51_279
*1539 FILLER_51_281
*1540 FILLER_51_293
*1541 FILLER_51_3
*1542 FILLER_51_39
*1543 FILLER_51_51
*1544 FILLER_51_55
*1545 FILLER_51_57
*1546 FILLER_51_69
*1547 FILLER_51_81
*1548 FILLER_51_93
*1549 FILLER_52_109
*1550 FILLER_52_121
*1551 FILLER_52_133
*1552 FILLER_52_139
*1553 FILLER_52_141
*1554 FILLER_52_15
*1555 FILLER_52_153
*1556 FILLER_52_165
*1557 FILLER_52_177
*1558 FILLER_52_189
*1559 FILLER_52_195
*1560 FILLER_52_197
*1561 FILLER_52_209
*1562 FILLER_52_221
*1563 FILLER_52_233
*1564 FILLER_52_245
*1565 FILLER_52_251
*1566 FILLER_52_253
*1567 FILLER_52_265
*1568 FILLER_52_27
*1569 FILLER_52_277
*1570 FILLER_52_289
*1571 FILLER_52_29
*1572 FILLER_52_297
*1573 FILLER_52_3
*1574 FILLER_52_41
*1575 FILLER_52_53
*1576 FILLER_52_65
*1577 FILLER_52_77
*1578 FILLER_52_83
*1579 FILLER_52_85
*1580 FILLER_52_97
*1581 FILLER_53_105
*1582 FILLER_53_111
*1583 FILLER_53_113
*1584 FILLER_53_125
*1585 FILLER_53_137
*1586 FILLER_53_149
*1587 FILLER_53_15