*SPEF "ieee 1481-1999"
*DESIGN "user_module_349011320806310484"
*DATE "11:11:11 Fri 11 11, 1111"
*VENDOR "OpenRCX"
*PROGRAM "Parallel Extraction"
*VERSION "1.0"
*DESIGN_FLOW "NAME_SCOPE LOCAL" "PIN_CAP NONE"
*DIVIDER /
*DELIMITER :
*BUS_DELIMITER []
*T_UNIT 1 NS
*C_UNIT 1 PF
*R_UNIT 1 OHM
*L_UNIT 1 HENRY

*NAME_MAP
*1 io_in[0]
*2 io_in[1]
*3 io_in[2]
*4 io_in[3]
*5 io_in[4]
*6 io_in[5]
*7 io_in[6]
*8 io_in[7]
*9 io_out[0]
*10 io_out[1]
*11 net8
*12 io_out[3]
*13 net9
*14 io_out[5]
*15 io_out[6]
*16 io_out[7]
*19 _000_
*20 _001_
*21 _002_
*22 _003_
*23 _004_
*24 _005_
*25 _006_
*26 _007_
*27 _008_
*28 _009_
*29 _010_
*30 _011_
*31 _012_
*32 _013_
*33 _014_
*34 _015_
*35 _016_
*36 _017_
*37 _018_
*38 _019_
*39 _020_
*40 _021_
*41 _022_
*42 _023_
*43 _024_
*44 _025_
*45 _026_
*46 _027_
*47 _028_
*48 _029_
*49 _030_
*50 _031_
*51 _032_
*52 _033_
*53 _034_
*54 _035_
*55 _036_
*56 _037_
*57 _038_
*58 _039_
*59 _040_
*60 _041_
*61 _042_
*62 clknet_0_flipflop1\.clk
*63 clknet_0_flop2\.clk
*64 clknet_0_io_in[0]
*65 clknet_1_0__leaf_flipflop1\.clk
*66 clknet_1_0__leaf_flop2\.clk
*67 clknet_1_0__leaf_io_in[0]
*68 clknet_1_1__leaf_flipflop1\.clk
*69 clknet_1_1__leaf_flop2\.clk
*70 clknet_1_1__leaf_io_in[0]
*71 flipflop1\.clk
*72 flipflop1\.d
*73 flipflop1\.q
*74 flipflop3\.d
*75 flipflop3\.q
*76 flipflop4\.d
*77 flipflop4\.q
*78 flipflop5\.d
*79 flipflop5\.q
*80 flipflop6\.d
*81 flipflop6\.q
*82 flop2\.clk
*83 flop2\.q
*84 flop3\.q
*85 flop4\.q
*86 flop5\.q
*87 flop6\.q
*88 mux24\.out
*89 net1
*90 net10
*91 net11
*92 net2
*93 net3
*94 net4
*95 net5
*96 net6
*97 net7
*98 FILLER_0_109
*99 FILLER_0_113
*100 FILLER_0_125
*101 FILLER_0_137
*102 FILLER_0_141
*103 FILLER_0_153
*104 FILLER_0_165
*105 FILLER_0_169
*106 FILLER_0_181
*107 FILLER_0_193
*108 FILLER_0_197
*109 FILLER_0_209
*110 FILLER_0_221
*111 FILLER_0_225
*112 FILLER_0_237
*113 FILLER_0_24
*114 FILLER_0_249
*115 FILLER_0_253
*116 FILLER_0_265
*117 FILLER_0_277
*118 FILLER_0_281
*119 FILLER_0_29
*120 FILLER_0_293
*121 FILLER_0_3
*122 FILLER_0_35
*123 FILLER_0_52
*124 FILLER_0_73
*125 FILLER_0_81
*126 FILLER_0_85
*127 FILLER_0_97
*128 FILLER_10_109
*129 FILLER_10_121
*130 FILLER_10_133
*131 FILLER_10_139
*132 FILLER_10_14
*133 FILLER_10_141
*134 FILLER_10_153
*135 FILLER_10_165
*136 FILLER_10_177
*137 FILLER_10_189
*138 FILLER_10_195
*139 FILLER_10_197
*140 FILLER_10_209
*141 FILLER_10_221
*142 FILLER_10_233
*143 FILLER_10_245
*144 FILLER_10_251
*145 FILLER_10_253
*146 FILLER_10_26
*147 FILLER_10_265
*148 FILLER_10_277
*149 FILLER_10_289
*150 FILLER_10_29
*151 FILLER_10_297
*152 FILLER_10_3
*153 FILLER_10_41
*154 FILLER_10_53
*155 FILLER_10_65
*156 FILLER_10_77
*157 FILLER_10_83
*158 FILLER_10_85
*159 FILLER_10_97
*160 FILLER_11_105
*161 FILLER_11_111
*162 FILLER_11_113
*163 FILLER_11_125
*164 FILLER_11_137
*165 FILLER_11_149
*166 FILLER_11_161
*167 FILLER_11_167
*168 FILLER_11_169
*169 FILLER_11_18
*170 FILLER_11_181
*171 FILLER_11_193
*172 FILLER_11_205
*173 FILLER_11_217
*174 FILLER_11_223
*175 FILLER_11_225
*176 FILLER_11_237
*177 FILLER_11_249
*178 FILLER_11_261
*179 FILLER_11_273
*180 FILLER_11_279
*181 FILLER_11_281
*182 FILLER_11_293
*183 FILLER_11_30
*184 FILLER_11_42
*185 FILLER_11_54
*186 FILLER_11_57
*187 FILLER_11_6
*188 FILLER_11_69
*189 FILLER_11_81
*190 FILLER_11_93
*191 FILLER_12_109
*192 FILLER_12_11
*193 FILLER_12_121
*194 FILLER_12_133
*195 FILLER_12_139
*196 FILLER_12_141
*197 FILLER_12_153
*198 FILLER_12_165
*199 FILLER_12_177
*200 FILLER_12_189
*201 FILLER_12_195
*202 FILLER_12_197
*203 FILLER_12_209
*204 FILLER_12_221
*205 FILLER_12_23
*206 FILLER_12_233
*207 FILLER_12_245
*208 FILLER_12_251
*209 FILLER_12_253
*210 FILLER_12_265
*211 FILLER_12_27
*212 FILLER_12_277
*213 FILLER_12_289
*214 FILLER_12_297
*215 FILLER_12_3
*216 FILLER_12_36
*217 FILLER_12_48
*218 FILLER_12_60
*219 FILLER_12_72
*220 FILLER_12_85
*221 FILLER_12_97
*222 FILLER_13_105
*223 FILLER_13_111
*224 FILLER_13_113
*225 FILLER_13_12
*226 FILLER_13_125
*227 FILLER_13_137
*228 FILLER_13_149
*229 FILLER_13_161
*230 FILLER_13_167
*231 FILLER_13_169
*232 FILLER_13_181
*233 FILLER_13_193
*234 FILLER_13_205
*235 FILLER_13_217
*236 FILLER_13_223
*237 FILLER_13_225
*238 FILLER_13_237
*239 FILLER_13_24
*240 FILLER_13_249
*241 FILLER_13_261
*242 FILLER_13_273
*243 FILLER_13_279
*244 FILLER_13_281
*245 FILLER_13_293
*246 FILLER_13_3
*247 FILLER_13_31
*248 FILLER_13_43
*249 FILLER_13_55
*250 FILLER_13_57
*251 FILLER_13_69
*252 FILLER_13_81
*253 FILLER_13_93
*254 FILLER_14_109
*255 FILLER_14_121
*256 FILLER_14_133
*257 FILLER_14_139
*258 FILLER_14_141
*259 FILLER_14_15
*260 FILLER_14_153
*261 FILLER_14_165
*262 FILLER_14_177
*263 FILLER_14_189
*264 FILLER_14_195
*265 FILLER_14_197
*266 FILLER_14_209
*267 FILLER_14_221
*268 FILLER_14_233
*269 FILLER_14_245
*270 FILLER_14_251
*271 FILLER_14_253
*272 FILLER_14_265
*273 FILLER_14_27
*274 FILLER_14_277
*275 FILLER_14_289
*276 FILLER_14_29
*277 FILLER_14_297
*278 FILLER_14_3
*279 FILLER_14_41
*280 FILLER_14_53
*281 FILLER_14_65
*282 FILLER_14_76
*283 FILLER_14_85
*284 FILLER_14_97
*285 FILLER_15_11
*286 FILLER_15_110
*287 FILLER_15_113
*288 FILLER_15_125
*289 FILLER_15_137
*290 FILLER_15_149
*291 FILLER_15_161
*292 FILLER_15_167
*293 FILLER_15_169
*294 FILLER_15_181
*295 FILLER_15_193
*296 FILLER_15_205
*297 FILLER_15_217
*298 FILLER_15_223
*299 FILLER_15_225
*300 FILLER_15_23
*301 FILLER_15_237
*302 FILLER_15_249
*303 FILLER_15_261
*304 FILLER_15_273
*305 FILLER_15_279
*306 FILLER_15_281
*307 FILLER_15_293
*308 FILLER_15_3
*309 FILLER_15_35
*310 FILLER_15_41
*311 FILLER_15_47
*312 FILLER_15_55
*313 FILLER_15_62
*314 FILLER_15_74
*315 FILLER_15_86
*316 FILLER_15_98
*317 FILLER_16_109
*318 FILLER_16_121
*319 FILLER_16_133
*320 FILLER_16_139
*321 FILLER_16_141
*322 FILLER_16_153
*323 FILLER_16_165
*324 FILLER_16_177
*325 FILLER_16_18
*326 FILLER_16_189
*327 FILLER_16_195
*328 FILLER_16_197
*329 FILLER_16_209
*330 FILLER_16_221
*331 FILLER_16_233
*332 FILLER_16_24
*333 FILLER_16_245
*334 FILLER_16_251
*335 FILLER_16_253
*336 FILLER_16_265
*337 FILLER_16_277
*338 FILLER_16_289
*339 FILLER_16_297
*340 FILLER_16_37
*341 FILLER_16_49
*342 FILLER_16_6
*343 FILLER_16_61
*344 FILLER_16_73
*345 FILLER_16_81
*346 FILLER_16_85
*347 FILLER_16_97
*348 FILLER_17_10
*349 FILLER_17_111
*350 FILLER_17_113
*351 FILLER_17_125
*352 FILLER_17_137
*353 FILLER_17_14
*354 FILLER_17_149
*355 FILLER_17_161
*356 FILLER_17_167
*357 FILLER_17_169
*358 FILLER_17_181
*359 FILLER_17_193
*360 FILLER_17_205
*361 FILLER_17_217
*362 FILLER_17_223
*363 FILLER_17_225
*364 FILLER_17_23
*365 FILLER_17_237
*366 FILLER_17_249
*367 FILLER_17_261
*368 FILLER_17_273
*369 FILLER_17_279
*370 FILLER_17_281
*371 FILLER_17_293
*372 FILLER_17_31
*373 FILLER_17_41
*374 FILLER_17_53
*375 FILLER_17_63
*376 FILLER_17_75
*377 FILLER_17_87
*378 FILLER_17_99
*379 FILLER_18_109
*380 FILLER_18_121
*381 FILLER_18_133
*382 FILLER_18_139
*383 FILLER_18_141
*384 FILLER_18_15
*385 FILLER_18_153
*386 FILLER_18_165
*387 FILLER_18_177
*388 FILLER_18_189
*389 FILLER_18_195
*390 FILLER_18_197
*391 FILLER_18_209
*392 FILLER_18_221
*393 FILLER_18_233
*394 FILLER_18_245
*395 FILLER_18_251
*396 FILLER_18_253
*397 FILLER_18_265
*398 FILLER_18_27
*399 FILLER_18_277
*400 FILLER_18_289
*401 FILLER_18_29
*402 FILLER_18_297
*403 FILLER_18_3
*404 FILLER_18_41
*405 FILLER_18_53
*406 FILLER_18_60
*407 FILLER_18_72
*408 FILLER_18_85
*409 FILLER_18_97
*410 FILLER_19_105
*411 FILLER_19_11
*412 FILLER_19_111
*413 FILLER_19_113
*414 FILLER_19_125
*415 FILLER_19_137
*416 FILLER_19_149
*417 FILLER_19_161
*418 FILLER_19_167
*419 FILLER_19_169
*420 FILLER_19_181
*421 FILLER_19_193
*422 FILLER_19_205
*423 FILLER_19_217
*424 FILLER_19_223
*425 FILLER_19_225
*426 FILLER_19_23
*427 FILLER_19_237
*428 FILLER_19_249
*429 FILLER_19_261
*430 FILLER_19_273
*431 FILLER_19_279
*432 FILLER_19_281
*433 FILLER_19_293
*434 FILLER_19_35
*435 FILLER_19_47
*436 FILLER_19_55
*437 FILLER_19_57
*438 FILLER_19_69
*439 FILLER_19_81
*440 FILLER_19_93
*441 FILLER_1_105
*442 FILLER_1_111
*443 FILLER_1_113
*444 FILLER_1_125
*445 FILLER_1_137
*446 FILLER_1_149
*447 FILLER_1_15
*448 FILLER_1_161
*449 FILLER_1_167
*450 FILLER_1_169
*451 FILLER_1_181
*452 FILLER_1_193
*453 FILLER_1_205
*454 FILLER_1_217
*455 FILLER_1_223
*456 FILLER_1_225
*457 FILLER_1_237
*458 FILLER_1_249
*459 FILLER_1_261
*460 FILLER_1_273
*461 FILLER_1_279
*462 FILLER_1_281
*463 FILLER_1_293
*464 FILLER_1_3
*465 FILLER_1_36
*466 FILLER_1_48
*467 FILLER_1_57
*468 FILLER_1_69
*469 FILLER_1_81
*470 FILLER_1_93
*471 FILLER_20_109
*472 FILLER_20_121
*473 FILLER_20_133
*474 FILLER_20_139
*475 FILLER_20_141
*476 FILLER_20_153
*477 FILLER_20_165
*478 FILLER_20_177
*479 FILLER_20_189
*480 FILLER_20_195
*481 FILLER_20_197
*482 FILLER_20_20
*483 FILLER_20_209
*484 FILLER_20_221
*485 FILLER_20_233
*486 FILLER_20_245
*487 FILLER_20_251
*488 FILLER_20_253
*489 FILLER_20_265
*490 FILLER_20_277
*491 FILLER_20_289
*492 FILLER_20_297
*493 FILLER_20_33
*494 FILLER_20_37
*495 FILLER_20_45
*496 FILLER_20_6
*497 FILLER_20_63
*498 FILLER_20_75
*499 FILLER_20_83
*500 FILLER_20_85
*501 FILLER_20_97
*502 FILLER_21_101
*503 FILLER_21_109
*504 FILLER_21_113
*505 FILLER_21_125
*506 FILLER_21_137
*507 FILLER_21_149
*508 FILLER_21_15
*509 FILLER_21_161
*510 FILLER_21_167
*511 FILLER_21_169
*512 FILLER_21_181
*513 FILLER_21_193
*514 FILLER_21_205
*515 FILLER_21_217
*516 FILLER_21_223
*517 FILLER_21_225
*518 FILLER_21_237
*519 FILLER_21_249
*520 FILLER_21_261
*521 FILLER_21_273
*522 FILLER_21_279
*523 FILLER_21_281
*524 FILLER_21_293
*525 FILLER_21_3
*526 FILLER_21_36
*527 FILLER_21_44
*528 FILLER_21_50
*529 FILLER_21_57
*530 FILLER_21_69
*531 FILLER_21_73
*532 FILLER_21_77
*533 FILLER_21_89
*534 FILLER_22_105
*535 FILLER_22_117
*536 FILLER_22_12
*537 FILLER_22_129
*538 FILLER_22_137
*539 FILLER_22_141
*540 FILLER_22_153
*541 FILLER_22_165
*542 FILLER_22_177
*543 FILLER_22_189
*544 FILLER_22_195
*545 FILLER_22_197
*546 FILLER_22_20
*547 FILLER_22_209
*548 FILLER_22_221
*549 FILLER_22_233
*550 FILLER_22_245
*551 FILLER_22_251
*552 FILLER_22_253
*553 FILLER_22_265
*554 FILLER_22_277
*555 FILLER_22_289
*556 FILLER_22_29
*557 FILLER_22_297
*558 FILLER_22_3
*559 FILLER_22_37
*560 FILLER_22_49
*561 FILLER_22_55
*562 FILLER_22_67
*563 FILLER_22_79
*564 FILLER_22_83
*565 FILLER_22_85
*566 FILLER_22_93
*567 FILLER_23_103
*568 FILLER_23_11
*569 FILLER_23_111
*570 FILLER_23_113
*571 FILLER_23_125
*572 FILLER_23_137
*573 FILLER_23_149
*574 FILLER_23_161
*575 FILLER_23_167
*576 FILLER_23_169
*577 FILLER_23_17
*578 FILLER_23_181
*579 FILLER_23_193
*580 FILLER_23_205
*581 FILLER_23_217
*582 FILLER_23_223
*583 FILLER_23_225
*584 FILLER_23_237
*585 FILLER_23_249
*586 FILLER_23_261
*587 FILLER_23_273
*588 FILLER_23_279
*589 FILLER_23_281
*590 FILLER_23_293
*591 FILLER_23_3
*592 FILLER_23_33
*593 FILLER_23_41
*594 FILLER_23_50
*595 FILLER_23_57
*596 FILLER_23_67
*597 FILLER_23_79
*598 FILLER_23_91
*599 FILLER_24_111
*600 FILLER_24_123
*601 FILLER_24_135
*602 FILLER_24_139
*603 FILLER_24_14
*604 FILLER_24_141
*605 FILLER_24_153
*606 FILLER_24_165
*607 FILLER_24_177
*608 FILLER_24_18
*609 FILLER_24_189
*610 FILLER_24_195
*611 FILLER_24_197
*612 FILLER_24_209
*613 FILLER_24_221
*614 FILLER_24_233
*615 FILLER_24_245
*616 FILLER_24_251
*617 FILLER_24_253
*618 FILLER_24_26
*619 FILLER_24_265
*620 FILLER_24_277
*621 FILLER_24_289
*622 FILLER_24_297
*623 FILLER_24_33
*624 FILLER_24_45
*625 FILLER_24_57
*626 FILLER_24_6
*627 FILLER_24_69
*628 FILLER_24_81
*629 FILLER_24_85
*630 FILLER_24_93
*631 FILLER_24_99
*632 FILLER_25_10
*633 FILLER_25_105
*634 FILLER_25_111
*635 FILLER_25_113
*636 FILLER_25_125
*637 FILLER_25_137
*638 FILLER_25_149
*639 FILLER_25_161
*640 FILLER_25_167
*641 FILLER_25_169
*642 FILLER_25_181
*643 FILLER_25_193
*644 FILLER_25_205
*645 FILLER_25_21
*646 FILLER_25_217
*647 FILLER_25_223
*648 FILLER_25_225
*649 FILLER_25_237
*650 FILLER_25_249
*651 FILLER_25_261
*652 FILLER_25_273
*653 FILLER_25_279
*654 FILLER_25_281
*655 FILLER_25_293
*656 FILLER_25_33
*657 FILLER_25_45
*658 FILLER_25_53
*659 FILLER_25_57
*660 FILLER_25_6
*661 FILLER_25_69
*662 FILLER_25_81
*663 FILLER_25_93
*664 FILLER_26_109
*665 FILLER_26_121
*666 FILLER_26_133
*667 FILLER_26_139
*668 FILLER_26_141
*669 FILLER_26_153
*670 FILLER_26_165
*671 FILLER_26_177
*672 FILLER_26_189
*673 FILLER_26_195
*674 FILLER_26_197
*675 FILLER_26_209
*676 FILLER_26_21
*677 FILLER_26_221
*678 FILLER_26_233
*679 FILLER_26_245
*680 FILLER_26_251
*681 FILLER_26_253
*682 FILLER_26_265
*683 FILLER_26_27
*684 FILLER_26_277
*685 FILLER_26_289
*686 FILLER_26_297
*687 FILLER_26_3
*688 FILLER_26_35
*689 FILLER_26_47
*690 FILLER_26_59
*691 FILLER_26_71
*692 FILLER_26_83
*693 FILLER_26_85
*694 FILLER_26_9
*695 FILLER_26_97
*696 FILLER_27_105
*697 FILLER_27_111
*698 FILLER_27_113
*699 FILLER_27_125
*700 FILLER_27_137
*701 FILLER_27_149
*702 FILLER_27_161
*703 FILLER_27_167
*704 FILLER_27_169
*705 FILLER_27_181
*706 FILLER_27_193
*707 FILLER_27_205
*708 FILLER_27_217
*709 FILLER_27_223
*710 FILLER_27_225
*711 FILLER_27_237
*712 FILLER_27_249
*713 FILLER_27_261
*714 FILLER_27_27
*715 FILLER_27_273
*716 FILLER_27_279
*717 FILLER_27_281
*718 FILLER_27_293
*719 FILLER_27_3
*720 FILLER_27_35
*721 FILLER_27_47
*722 FILLER_27_55
*723 FILLER_27_57
*724 FILLER_27_69
*725 FILLER_27_81
*726 FILLER_27_93
*727 FILLER_28_109
*728 FILLER_28_12
*729 FILLER_28_121
*730 FILLER_28_133
*731 FILLER_28_139
*732 FILLER_28_141
*733 FILLER_28_153
*734 FILLER_28_165
*735 FILLER_28_177
*736 FILLER_28_189
*737 FILLER_28_195
*738 FILLER_28_197
*739 FILLER_28_209
*740 FILLER_28_21
*741 FILLER_28_221
*742 FILLER_28_233
*743 FILLER_28_245
*744 FILLER_28_251
*745 FILLER_28_253
*746 FILLER_28_265
*747 FILLER_28_27
*748 FILLER_28_277
*749 FILLER_28_289
*750 FILLER_28_29
*751 FILLER_28_297
*752 FILLER_28_3
*753 FILLER_28_41
*754 FILLER_28_53
*755 FILLER_28_65
*756 FILLER_28_7
*757 FILLER_28_77
*758 FILLER_28_83
*759 FILLER_28_85
*760 FILLER_28_97
*761 FILLER_29_10
*762 FILLER_29_105
*763 FILLER_29_111
*764 FILLER_29_113
*765 FILLER_29_125
*766 FILLER_29_137
*767 FILLER_29_149
*768 FILLER_29_161
*769 FILLER_29_167
*770 FILLER_29_169
*771 FILLER_29_181
*772 FILLER_29_193
*773 FILLER_29_205
*774 FILLER_29_217
*775 FILLER_29_223
*776 FILLER_29_225
*777 FILLER_29_237
*778 FILLER_29_249
*779 FILLER_29_261
*780 FILLER_29_273
*781 FILLER_29_279
*782 FILLER_29_281
*783 FILLER_29_293
*784 FILLER_29_38
*785 FILLER_29_50
*786 FILLER_29_57
*787 FILLER_29_69
*788 FILLER_29_81
*789 FILLER_29_93
*790 FILLER_2_109
*791 FILLER_2_121
*792 FILLER_2_133
*793 FILLER_2_139
*794 FILLER_2_141
*795 FILLER_2_153
*796 FILLER_2_165
*797 FILLER_2_177
*798 FILLER_2_189
*799 FILLER_2_195
*800 FILLER_2_197
*801 FILLER_2_209
*802 FILLER_2_221
*803 FILLER_2_233
*804 FILLER_2_24
*805 FILLER_2_245
*806 FILLER_2_251
*807 FILLER_2_253
*808 FILLER_2_265
*809 FILLER_2_277
*810 FILLER_2_289
*811 FILLER_2_297
*812 FILLER_2_3
*813 FILLER_2_45
*814 FILLER_2_57
*815 FILLER_2_69
*816 FILLER_2_7
*817 FILLER_2_81
*818 FILLER_2_85
*819 FILLER_2_97
*820 FILLER_30_109
*821 FILLER_30_121
*822 FILLER_30_133
*823 FILLER_30_139
*824 FILLER_30_141
*825 FILLER_30_153
*826 FILLER_30_165
*827 FILLER_30_177
*828 FILLER_30_189
*829 FILLER_30_195
*830 FILLER_30_197
*831 FILLER_30_209
*832 FILLER_30_221
*833 FILLER_30_233
*834 FILLER_30_24
*835 FILLER_30_245
*836 FILLER_30_251
*837 FILLER_30_253
*838 FILLER_30_265
*839 FILLER_30_277
*840 FILLER_30_289
*841 FILLER_30_29
*842 FILLER_30_297
*843 FILLER_30_3
*844 FILLER_30_37
*845 FILLER_30_49
*846 FILLER_30_61
*847 FILLER_30_7
*848 FILLER_30_73
*849 FILLER_30_81
*850 FILLER_30_85
*851 FILLER_30_97
*852 FILLER_31_10
*853 FILLER_31_105
*854 FILLER_31_111
*855 FILLER_31_113
*856 FILLER_31_125
*857 FILLER_31_137
*858 FILLER_31_149
*859 FILLER_31_161
*860 FILLER_31_167
*861 FILLER_31_169
*862 FILLER_31_181
*863 FILLER_31_193
*864 FILLER_31_205
*865 FILLER_31_217
*866 FILLER_31_223
*867 FILLER_31_225
*868 FILLER_31_237
*869 FILLER_31_249
*870 FILLER_31_261
*871 FILLER_31_273
*872 FILLER_31_279
*873 FILLER_31_281
*874 FILLER_31_293
*875 FILLER_31_36
*876 FILLER_31_48
*877 FILLER_31_57
*878 FILLER_31_69
*879 FILLER_31_81
*880 FILLER_31_93
*881 FILLER_32_109
*882 FILLER_32_121
*883 FILLER_32_133
*884 FILLER_32_139
*885 FILLER_32_141
*886 FILLER_32_153
*887 FILLER_32_165
*888 FILLER_32_177
*889 FILLER_32_189
*890 FILLER_32_195
*891 FILLER_32_197
*892 FILLER_32_209
*893 FILLER_32_221
*894 FILLER_32_233
*895 FILLER_32_24
*896 FILLER_32_245
*897 FILLER_32_251
*898 FILLER_32_253
*899 FILLER_32_265
*900 FILLER_32_277
*901 FILLER_32_289
*902 FILLER_32_29
*903 FILLER_32_297
*904 FILLER_32_3
*905 FILLER_32_41
*906 FILLER_32_53
*907 FILLER_32_65
*908 FILLER_32_7
*909 FILLER_32_77
*910 FILLER_32_83
*911 FILLER_32_85
*912 FILLER_32_97
*913 FILLER_33_105
*914 FILLER_33_111
*915 FILLER_33_113
*916 FILLER_33_125
*917 FILLER_33_137
*918 FILLER_33_149
*919 FILLER_33_161
*920 FILLER_33_167
*921 FILLER_33_169
*922 FILLER_33_181
*923 FILLER_33_193
*924 FILLER_33_205
*925 FILLER_33_217
*926 FILLER_33_223
*927 FILLER_33_225
*928 FILLER_33_237
*929 FILLER_33_24
*930 FILLER_33_249
*931 FILLER_33_261
*932 FILLER_33_273
*933 FILLER_33_279
*934 FILLER_33_281
*935 FILLER_33_293
*936 FILLER_33_3
*937 FILLER_33_31
*938 FILLER_33_43
*939 FILLER_33_55
*940 FILLER_33_57
*941 FILLER_33_69
*942 FILLER_33_7
*943 FILLER_33_81
*944 FILLER_33_93
*945 FILLER_34_109
*946 FILLER_34_121
*947 FILLER_34_133
*948 FILLER_34_139
*949 FILLER_34_141
*950 FILLER_34_153
*951 FILLER_34_165
*952 FILLER_34_177
*953 FILLER_34_189
*954 FILLER_34_195
*955 FILLER_34_197
*956 FILLER_34_209
*957 FILLER_34_221
*958 FILLER_34_233
*959 FILLER_34_24
*960 FILLER_34_245
*961 FILLER_34_251
*962 FILLER_34_253
*963 FILLER_34_265
*964 FILLER_34_277
*965 FILLER_34_289
*966 FILLER_34_29
*967 FILLER_34_297
*968 FILLER_34_3
*969 FILLER_34_41
*970 FILLER_34_53
*971 FILLER_34_65
*972 FILLER_34_77
*973 FILLER_34_83
*974 FILLER_34_85
*975 FILLER_34_97
*976 FILLER_35_105
*977 FILLER_35_111
*978 FILLER_35_113
*979 FILLER_35_125
*980 FILLER_35_137
*981 FILLER_35_149
*982 FILLER_35_161
*983 FILLER_35_167
*984 FILLER_35_169
*985 FILLER_35_181
*986 FILLER_35_193
*987 FILLER_35_205
*988 FILLER_35_217
*989 FILLER_35_223
*990 FILLER_35_225
*991 FILLER_35_237
*992 FILLER_35_249
*993 FILLER_35_26
*994 FILLER_35_261
*995 FILLER_35_273
*996 FILLER_35_279
*997 FILLER_35_281
*998 FILLER_35_293
*999 FILLER_35_3
*1000 FILLER_35_38
*1001 FILLER_35_50
*1002 FILLER_35_57
*1003 FILLER_35_69
*1004 FILLER_35_81
*1005 FILLER_35_9
*1006 FILLER_35_93
*1007 FILLER_36_109
*1008 FILLER_36_121
*1009 FILLER_36_133
*1010 FILLER_36_139
*1011 FILLER_36_141
*1012 FILLER_36_153
*1013 FILLER_36_165
*1014 FILLER_36_177
*1015 FILLER_36_189
*1016 FILLER_36_195
*1017 FILLER_36_197
*1018 FILLER_36_209
*1019 FILLER_36_221
*1020 FILLER_36_233
*1021 FILLER_36_24
*1022 FILLER_36_245
*1023 FILLER_36_251
*1024 FILLER_36_253
*1025 FILLER_36_265
*1026 FILLER_36_277
*1027 FILLER_36_289
*1028 FILLER_36_29
*1029 FILLER_36_297
*1030 FILLER_36_3
*1031 FILLER_36_41
*1032 FILLER_36_53
*1033 FILLER_36_65
*1034 FILLER_36_77
*1035 FILLER_36_83
*1036 FILLER_36_85
*1037 FILLER_36_97
*1038 FILLER_37_105
*1039 FILLER_37_111
*1040 FILLER_37_113
*1041 FILLER_37_125
*1042 FILLER_37_137
*1043 FILLER_37_149
*1044 FILLER_37_161
*1045 FILLER_37_167
*1046 FILLER_37_169
*1047 FILLER_37_181
*1048 FILLER_37_193
*1049 FILLER_37_205
*1050 FILLER_37_217
*1051 FILLER_37_223
*1052 FILLER_37_225
*1053 FILLER_37_237
*1054 FILLER_37_24
*1055 FILLER_37_249
*1056 FILLER_37_261
*1057 FILLER_37_273
*1058 FILLER_37_279
*1059 FILLER_37_281
*1060 FILLER_37_293
*1061 FILLER_37_3
*1062 FILLER_37_36
*1063 FILLER_37_48
*1064 FILLER_37_57
*1065 FILLER_37_69
*1066 FILLER_37_7
*1067 FILLER_37_81
*1068 FILLER_37_93
*1069 FILLER_38_109
*1070 FILLER_38_121
*1071 FILLER_38_133
*1072 FILLER_38_139
*1073 FILLER_38_141
*1074 FILLER_38_153
*1075 FILLER_38_16
*1076 FILLER_38_165
*1077 FILLER_38_177
*1078 FILLER_38_189
*1079 FILLER_38_195
*1080 FILLER_38_197
*1081 FILLER_38_209
*1082 FILLER_38_221
*1083 FILLER_38_233
*1084 FILLER_38_245
*1085 FILLER_38_251
*1086 FILLER_38_253
*1087 FILLER_38_265
*1088 FILLER_38_277
*1089 FILLER_38_289
*1090 FILLER_38_29
*1091 FILLER_38_297
*1092 FILLER_38_3
*1093 FILLER_38_41
*1094 FILLER_38_53
*1095 FILLER_38_65
*1096 FILLER_38_77
*1097 FILLER_38_8
*1098 FILLER_38_83
*1099 FILLER_38_85
*1100 FILLER_38_97
*1101 FILLER_39_105
*1102 FILLER_39_111
*1103 FILLER_39_113
*1104 FILLER_39_125
*1105 FILLER_39_137
*1106 FILLER_39_149
*1107 FILLER_39_161
*1108 FILLER_39_167
*1109 FILLER_39_169
*1110 FILLER_39_18
*1111 FILLER_39_181
*1112 FILLER_39_193
*1113 FILLER_39_205
*1114 FILLER_39_217
*1115 FILLER_39_223
*1116 FILLER_39_225
*1117 FILLER_39_237
*1118 FILLER_39_249
*1119 FILLER_39_261
*1120 FILLER_39_273
*1121 FILLER_39_279
*1122 FILLER_39_281
*1123 FILLER_39_293
*1124 FILLER_39_30
*1125 FILLER_39_42
*1126 FILLER_39_54
*1127 FILLER_39_57
*1128 FILLER_39_6
*1129 FILLER_39_69
*1130 FILLER_39_81
*1131 FILLER_39_93
*1132 FILLER_3_105
*1133 FILLER_3_111
*1134 FILLER_3_113
*1135 FILLER_3_125
*1136 FILLER_3_137
*1137 FILLER_3_149
*1138 FILLER_3_161
*1139 FILLER_3_167
*1140 FILLER_3_169
*1141 FILLER_3_181
*1142 FILLER_3_193
*1143 FILLER_3_205
*1144 FILLER_3_217
*1145 FILLER_3_223
*1146 FILLER_3_225
*1147 FILLER_3_237
*1148 FILLER_3_249
*1149 FILLER_3_261
*1150 FILLER_3_27
*1151 FILLER_3_273
*1152 FILLER_3_279
*1153 FILLER_3_281
*1154 FILLER_3_293
*1155 FILLER_3_3
*1156 FILLER_3_38
*1157 FILLER_3_50
*1158 FILLER_3_57
*1159 FILLER_3_69
*1160 FILLER_3_81
*1161 FILLER_3_93
*1162 FILLER_40_109
*1163 FILLER_40_121
*1164 FILLER_40_133
*1165 FILLER_40_139
*1166 FILLER_40_141
*1167 FILLER_40_15
*1168 FILLER_40_153
*1169 FILLER_40_165
*1170 FILLER_40_177
*1171 FILLER_40_189
*1172 FILLER_40_195
*1173 FILLER_40_197
*1174 FILLER_40_209
*1175 FILLER_40_221
*1176 FILLER_40_233
*1177 FILLER_40_245
*1178 FILLER_40_251
*1179 FILLER_40_253
*1180 FILLER_40_265
*1181 FILLER_40_27
*1182 FILLER_40_277
*1183 FILLER_40_289
*1184 FILLER_40_29
*1185 FILLER_40_297
*1186 FILLER_40_3
*1187 FILLER_40_41
*1188 FILLER_40_53
*1189 FILLER_40_65
*1190 FILLER_40_77
*1191 FILLER_40_83
*1192 FILLER_40_85
*1193 FILLER_40_97
*1194 FILLER_41_105
*1195 FILLER_41_111
*1196 FILLER_41_113
*1197 FILLER_41_125
*1198 FILLER_41_137
*1199 FILLER_41_149
*1200 FILLER_41_15
*1201 FILLER_41_161
*1202 FILLER_41_167
*1203 FILLER_41_169
*1204 FILLER_41_181
*1205 FILLER_41_193
*1206 FILLER_41_205
*1207 FILLER_41_217
*1208 FILLER_41_223
*1209 FILLER_41_225
*1210 FILLER_41_237
*1211 FILLER_41_249
*1212 FILLER_41_261
*1213 FILLER_41_27
*1214 FILLER_41_273
*1215 FILLER_41_279
*1216 FILLER_41_281
*1217 FILLER_41_293
*1218 FILLER_41_3
*1219 FILLER_41_39
*1220 FILLER_41_51
*1221 FILLER_41_55
*1222 FILLER_41_57
*1223 FILLER_41_69
*1224 FILLER_41_81
*1225 FILLER_41_93
*1226 FILLER_42_109
*1227 FILLER_42_121
*1228 FILLER_42_133
*1229 FILLER_42_139
*1230 FILLER_42_141
*1231 FILLER_42_15
*1232 FILLER_42_153
*1233 FILLER_42_165
*1234 FILLER_42_177
*1235 FILLER_42_189
*1236 FILLER_42_195
*1237 FILLER_42_197
*1238 FILLER_42_209
*1239 FILLER_42_221
*1240 FILLER_42_233
*1241 FILLER_42_245
*1242 FILLER_42_251
*1243 FILLER_42_253
*1244 FILLER_42_265
*1245 FILLER_42_27
*1246 FILLER_42_277
*1247 FILLER_42_289
*1248 FILLER_42_29
*1249 FILLER_42_297
*1250 FILLER_42_3
*1251 FILLER_42_41
*1252 FILLER_42_53
*1253 FILLER_42_65
*1254 FILLER_42_77
*1255 FILLER_42_83
*1256 FILLER_42_85
*1257 FILLER_42_97
*1258 FILLER_43_105
*1259 FILLER_43_111
*1260 FILLER_43_113
*1261 FILLER_43_125
*1262 FILLER_43_137
*1263 FILLER_43_149
*1264 FILLER_43_15
*1265 FILLER_43_161
*1266 FILLER_43_167
*1267 FILLER_43_169
*1268 FILLER_43_181
*1269 FILLER_43_193
*1270 FILLER_43_205
*1271 FILLER_43_217
*1272 FILLER_43_223
*1273 FILLER_43_225
*1274 FILLER_43_237
*1275 FILLER_43_249
*1276 FILLER_43_261
*1277 FILLER_43_27
*1278 FILLER_43_273
*1279 FILLER_43_279
*1280 FILLER_43_281
*1281 FILLER_43_293
*1282 FILLER_43_3
*1283 FILLER_43_39
*1284 FILLER_43_51
*1285 FILLER_43_55
*1286 FILLER_43_57
*1287 FILLER_43_69
*1288 FILLER_43_81
*1289 FILLER_43_93
*1290 FILLER_44_109
*1291 FILLER_44_121
*1292 FILLER_44_133
*1293 FILLER_44_139
*1294 FILLER_44_141
*1295 FILLER_44_15
*1296 FILLER_44_153
*1297 FILLER_44_165
*1298 FILLER_44_177
*1299 FILLER_44_189
*1300 FILLER_44_195
*1301 FILLER_44_197
*1302 FILLER_44_209
*1303 FILLER_44_221
*1304 FILLER_44_233
*1305 FILLER_44_245
*1306 FILLER_44_251
*1307 FILLER_44_253
*1308 FILLER_44_265
*1309 FILLER_44_27
*1310 FILLER_44_277
*1311 FILLER_44_289
*1312 FILLER_44_29
*1313 FILLER_44_297
*1314 FILLER_44_3
*1315 FILLER_44_41
*1316 FILLER_44_53
*1317 FILLER_44_65
*1318 FILLER_44_77
*1319 FILLER_44_83
*1320 FILLER_44_85
*1321 FILLER_44_97
*1322 FILLER_45_105
*1323 FILLER_45_111
*1324 FILLER_45_113
*1325 FILLER_45_125
*1326 FILLER_45_137
*1327 FILLER_45_149
*1328 FILLER_45_15
*1329 FILLER_45_161
*1330 FILLER_45_167
*1331 FILLER_45_169
*1332 FILLER_45_181
*1333 FILLER_45_193
*1334 FILLER_45_205
*1335 FILLER_45_217
*1336 FILLER_45_223
*1337 FILLER_45_225
*1338 FILLER_45_237
*1339 FILLER_45_249
*1340 FILLER_45_261
*1341 FILLER_45_27
*1342 FILLER_45_273
*1343 FILLER_45_279
*1344 FILLER_45_281
*1345 FILLER_45_293
*1346 FILLER_45_3
*1347 FILLER_45_39
*1348 FILLER_45_51
*1349 FILLER_45_55
*1350 FILLER_45_57
*1351 FILLER_45_69
*1352 FILLER_45_81
*1353 FILLER_45_93
*1354 FILLER_46_109
*1355 FILLER_46_121
*1356 FILLER_46_133
*1357 FILLER_46_139
*1358 FILLER_46_141
*1359 FILLER_46_153
*1360 FILLER_46_165
*1361 FILLER_46_177
*1362 FILLER_46_18
*1363 FILLER_46_189
*1364 FILLER_46_195
*1365 FILLER_46_197
*1366 FILLER_46_209
*1367 FILLER_46_221
*1368 FILLER_46_233
*1369 FILLER_46_245
*1370 FILLER_46_251
*1371 FILLER_46_253
*1372 FILLER_46_26
*1373 FILLER_46_265
*1374 FILLER_46_277
*1375 FILLER_46_289
*1376 FILLER_46_29
*1377 FILLER_46_297
*1378 FILLER_46_41
*1379 FILLER_46_53
*1380 FILLER_46_6
*1381 FILLER_46_65
*1382 FILLER_46_77
*1383 FILLER_46_83
*1384 FILLER_46_85
*1385 FILLER_46_97
*1386 FILLER_47_105
*1387 FILLER_47_111
*1388 FILLER_47_113
*1389 FILLER_47_125
*1390 FILLER_47_137
*1391 FILLER_47_149
*1392 FILLER_47_15
*1393 FILLER_47_161
*1394 FILLER_47_167
*1395 FILLER_47_169
*1396 FILLER_47_181
*1397 FILLER_47_193
*1398 FILLER_47_205
*1399 FILLER_47_217
*1400 FILLER_47_223
*1401 FILLER_47_225
*1402 FILLER_47_237
*1403 FILLER_47_249
*1404 FILLER_47_261
*1405 FILLER_47_27
*1406 FILLER_47_273
*1407 FILLER_47_279
*1408 FILLER_47_281
*1409 FILLER_47_293
*1410 FILLER_47_3
*1411 FILLER_47_39
*1412 FILLER_47_51
*1413 FILLER_47_55
*1414 FILLER_47_57
*1415 FILLER_47_69
*1416 FILLER_47_81
*1417 FILLER_47_93
*1418 FILLER_48_109
*1419 FILLER_48_11
*1420 FILLER_48_121
*1421 FILLER_48_133
*1422 FILLER_48_139
*1423 FILLER_48_141
*1424 FILLER_48_153
*1425 FILLER_48_165
*1426 FILLER_48_177
*1427 FILLER_48_189
*1428 FILLER_48_195
*1429 FILLER_48_197
*1430 FILLER_48_209
*1431 FILLER_48_221
*1432 FILLER_48_23
*1433 FILLER_48_233
*1434 FILLER_48_245
*1435 FILLER_48_251
*1436 FILLER_48_253
*1437 FILLER_48_265
*1438 FILLER_48_27
*1439 FILLER_48_277
*1440 FILLER_48_289
*1441 FILLER_48_29
*1442 FILLER_48_297
*1443 FILLER_48_3
*1444 FILLER_48_41
*1445 FILLER_48_53
*1446 FILLER_48_65
*1447 FILLER_48_77
*1448 FILLER_48_83
*1449 FILLER_48_85
*1450 FILLER_48_97
*1451 FILLER_49_105
*1452 FILLER_49_111
*1453 FILLER_49_113
*1454 FILLER_49_125
*1455 FILLER_49_137
*1456 FILLER_49_149
*1457 FILLER_49_15
*1458 FILLER_49_161
*1459 FILLER_49_167
*1460 FILLER_49_169
*1461 FILLER_49_181
*1462 FILLER_49_193
*1463 FILLER_49_205
*1464 FILLER_49_217
*1465 FILLER_49_223
*1466 FILLER_49_225
*1467 FILLER_49_237
*1468 FILLER_49_249
*1469 FILLER_49_261
*1470 FILLER_49_27
*1471 FILLER_49_273
*1472 FILLER_49_279
*1473 FILLER_49_281
*1474 FILLER_49_293
*1475 FILLER_49_3
*1476 FILLER_49_39
*1477 FILLER_49_51
*1478 FILLER_49_55
*1479 FILLER_49_57
*1480 FILLER_49_69
*1481 FILLER_49_81
*1482 FILLER_49_93
*1483 FILLER_4_109
*1484 FILLER_4_121
*1485 FILLER_4_133
*1486 FILLER_4_139
*1487 FILLER_4_141
*1488 FILLER_4_153
*1489 FILLER_4_165
*1490 FILLER_4_177
*1491 FILLER_4_189
*1492 FILLER_4_195
*1493 FILLER_4_197
*1494 FILLER_4_209
*1495 FILLER_4_221
*1496 FILLER_4_233
*1497 FILLER_4_24
*1498 FILLER_4_245
*1499 FILLER_4_251
*1500 FILLER_4_253
*1501 FILLER_4_265
*1502 FILLER_4_277
*1503 FILLER_4_289
*1504 FILLER_4_29
*1505 FILLER_4_297
*1506 FILLER_4_3
*1507 FILLER_4_41
*1508 FILLER_4_53
*1509 FILLER_4_65
*1510 FILLER_4_7
*1511 FILLER_4_77
*1512 FILLER_4_83
*1513 FILLER_4_85
*1514 FILLER_4_97
*1515 FILLER_50_109
*1516 FILLER_50_11
*1517 FILLER_50_121
*1518 FILLER_50_133
*1519 FILLER_50_139
*1520 FILLER_50_141
*1521 FILLER_50_153
*1522 FILLER_50_16
*1523 FILLER_50_165
*1524 FILLER_50_177
*1525 FILLER_50_189
*1526 FILLER_50_195
*1527 FILLER_50_197
*1528 FILLER_50_209
*1529 FILLER_50_221
*1530 FILLER_50_233
*1531 FILLER_50_245
*1532 FILLER_50_251
*1533 FILLER_50_253
*1534 FILLER_50_265
*1535 FILLER_50_277
*1536 FILLER_50_289
*1537 FILLER_50_29
*1538 FILLER_50_297
*1539 FILLER_50_3
*1540 FILLER_50_41
*1541 FILLER_50_53
*1542 FILLER_50_65
*1543 FILLER_50_77
*1544 FILLER_50_83
*1545 FILLER_50_85
*1546 FILLER_50_97
*1547 FILLER_51_105
*1548 FILLER_51_111
*1549 FILLER_51_113
*1550 FILLER_51_125
*1551 FILLER_51_137
*1552 FILLER_51_149
*1553 FILLER_51_15
*1554 FILLER_51_161
*1555 FILLER_51_167
*1556 FILLER_51_169
*1557 FILLER_51_181
*1558 FILLER_51_193
*1559 FILLER_51_205
*1560 FILLER_51_217
*1561 FILLER_51_223
*1562 FILLER_51_225
*1563 FILLER_51_237
*1564 FILLER_51_249
*1565 FILLER_51_261
*1566 FILLER_51_27
*1567 FILLER_51_273
*1568 FILLER_51_279
*1569 FILLER_51_281
*1570 FILLER_51_293
*1571 FILLER_51_3
*1572 FILLER_51_39
*1573 FILLER_51_51
*1574 FILLER_51_55
*1575 FILLER_51_57
*1576 FILLER_51_69
*1577 FILLER_51_81
*1578 FILLER_51_93
*1579 FILLER_52_109
*1580 FILLER_52_121
*1581 FILLER_52_133
*1582 FILLER_52_139
*1583 FILLER_52_141
*1584 FILLER_52_15
*1585 FILLER_52_153
*1586 FILLER_52_165
*1587 FILLER_52_177
*1588 FILLER_52_189
*1589 FILLER_52_195
*1590 FILLER_52_197
*1591 FILLER_52_209
*1592 FILLER_52_221
*1593 FILLER_52_233
*1594 FILLER_52_245
*1595 FILLER_52_251
*1596 FILLER_52_253
*1597 FILLER_52_265