*SPEF "ieee 1481-1999"
*DESIGN "user_module_341541108650607187"
*DATE "11:11:11 Fri 11 11, 1111"
*VENDOR "OpenRCX"
*PROGRAM "Parallel Extraction"
*VERSION "1.0"
*DESIGN_FLOW "NAME_SCOPE LOCAL" "PIN_CAP NONE"
*DIVIDER /
*DELIMITER :
*BUS_DELIMITER []
*T_UNIT 1 NS
*C_UNIT 1 PF
*R_UNIT 1 OHM
*L_UNIT 1 HENRY

*NAME_MAP
*1 io_in[0]
*2 io_in[1]
*3 io_in[2]
*4 io_in[3]
*5 io_in[4]
*6 io_in[5]
*7 io_in[6]
*8 io_in[7]
*9 io_out[0]
*10 io_out[1]
*11 io_out[2]
*12 io_out[3]
*13 io_out[4]
*14 io_out[5]
*15 io_out[6]
*16 io_out[7]
*19 _00_
*20 _01_
*21 _02_
*22 _03_
*23 _04_
*24 clknet_0_io_in[0]
*25 clknet_1_0__leaf_io_in[0]
*26 clknet_1_1__leaf_io_in[0]
*27 flipflop2\.d
*28 flipflop2\.q
*29 flipflop3\.d
*30 flipflop3\.q
*31 gate11\.in
*32 gate13\.in
*33 gate14\.in
*34 gate15\.in
*35 gate16\.in
*36 net1
*37 net2
*38 net3
*39 net4
*40 net5
*41 net6
*42 FILLER_0_109
*43 FILLER_0_113
*44 FILLER_0_125
*45 FILLER_0_137
*46 FILLER_0_141
*47 FILLER_0_15
*48 FILLER_0_153
*49 FILLER_0_165
*50 FILLER_0_169
*51 FILLER_0_181
*52 FILLER_0_193
*53 FILLER_0_197
*54 FILLER_0_209
*55 FILLER_0_221
*56 FILLER_0_225
*57 FILLER_0_237
*58 FILLER_0_249
*59 FILLER_0_253
*60 FILLER_0_265
*61 FILLER_0_27
*62 FILLER_0_277
*63 FILLER_0_281
*64 FILLER_0_29
*65 FILLER_0_293
*66 FILLER_0_3
*67 FILLER_0_41
*68 FILLER_0_53
*69 FILLER_0_57
*70 FILLER_0_69
*71 FILLER_0_81
*72 FILLER_0_85
*73 FILLER_0_97
*74 FILLER_10_109
*75 FILLER_10_121
*76 FILLER_10_133
*77 FILLER_10_139
*78 FILLER_10_141
*79 FILLER_10_15
*80 FILLER_10_153
*81 FILLER_10_165
*82 FILLER_10_177
*83 FILLER_10_189
*84 FILLER_10_195
*85 FILLER_10_197
*86 FILLER_10_209
*87 FILLER_10_221
*88 FILLER_10_233
*89 FILLER_10_245
*90 FILLER_10_251
*91 FILLER_10_253
*92 FILLER_10_265
*93 FILLER_10_27
*94 FILLER_10_277
*95 FILLER_10_289
*96 FILLER_10_29
*97 FILLER_10_297
*98 FILLER_10_3
*99 FILLER_10_41
*100 FILLER_10_53
*101 FILLER_10_65
*102 FILLER_10_77
*103 FILLER_10_83
*104 FILLER_10_85
*105 FILLER_10_97
*106 FILLER_11_105
*107 FILLER_11_111
*108 FILLER_11_113
*109 FILLER_11_125
*110 FILLER_11_137
*111 FILLER_11_149
*112 FILLER_11_15
*113 FILLER_11_161
*114 FILLER_11_167
*115 FILLER_11_169
*116 FILLER_11_181
*117 FILLER_11_193
*118 FILLER_11_205
*119 FILLER_11_217
*120 FILLER_11_223
*121 FILLER_11_225
*122 FILLER_11_237
*123 FILLER_11_249
*124 FILLER_11_261
*125 FILLER_11_27
*126 FILLER_11_273
*127 FILLER_11_279
*128 FILLER_11_281
*129 FILLER_11_293
*130 FILLER_11_3
*131 FILLER_11_39
*132 FILLER_11_51
*133 FILLER_11_55
*134 FILLER_11_57
*135 FILLER_11_69
*136 FILLER_11_81
*137 FILLER_11_93
*138 FILLER_12_109
*139 FILLER_12_121
*140 FILLER_12_133
*141 FILLER_12_139
*142 FILLER_12_141
*143 FILLER_12_153
*144 FILLER_12_165
*145 FILLER_12_177
*146 FILLER_12_18
*147 FILLER_12_189
*148 FILLER_12_195
*149 FILLER_12_197
*150 FILLER_12_209
*151 FILLER_12_221
*152 FILLER_12_233
*153 FILLER_12_245
*154 FILLER_12_251
*155 FILLER_12_253
*156 FILLER_12_26
*157 FILLER_12_265
*158 FILLER_12_277
*159 FILLER_12_289
*160 FILLER_12_29
*161 FILLER_12_297
*162 FILLER_12_41
*163 FILLER_12_53
*164 FILLER_12_6
*165 FILLER_12_65
*166 FILLER_12_77
*167 FILLER_12_83
*168 FILLER_12_85
*169 FILLER_12_97
*170 FILLER_13_105
*171 FILLER_13_111
*172 FILLER_13_113
*173 FILLER_13_125
*174 FILLER_13_137
*175 FILLER_13_149
*176 FILLER_13_15
*177 FILLER_13_161
*178 FILLER_13_167
*179 FILLER_13_169
*180 FILLER_13_181
*181 FILLER_13_193
*182 FILLER_13_205
*183 FILLER_13_217
*184 FILLER_13_223
*185 FILLER_13_225
*186 FILLER_13_237
*187 FILLER_13_249
*188 FILLER_13_261
*189 FILLER_13_27
*190 FILLER_13_273
*191 FILLER_13_279
*192 FILLER_13_281
*193 FILLER_13_293
*194 FILLER_13_3
*195 FILLER_13_39
*196 FILLER_13_51
*197 FILLER_13_55
*198 FILLER_13_57
*199 FILLER_13_69
*200 FILLER_13_81
*201 FILLER_13_93
*202 FILLER_14_109
*203 FILLER_14_121
*204 FILLER_14_133
*205 FILLER_14_139
*206 FILLER_14_141
*207 FILLER_14_15
*208 FILLER_14_153
*209 FILLER_14_165
*210 FILLER_14_177
*211 FILLER_14_189
*212 FILLER_14_195
*213 FILLER_14_197
*214 FILLER_14_209
*215 FILLER_14_221
*216 FILLER_14_233
*217 FILLER_14_245
*218 FILLER_14_251
*219 FILLER_14_253
*220 FILLER_14_265
*221 FILLER_14_27
*222 FILLER_14_277
*223 FILLER_14_289
*224 FILLER_14_29
*225 FILLER_14_297
*226 FILLER_14_3
*227 FILLER_14_41
*228 FILLER_14_53
*229 FILLER_14_65
*230 FILLER_14_77
*231 FILLER_14_83
*232 FILLER_14_85
*233 FILLER_14_97
*234 FILLER_15_105
*235 FILLER_15_111
*236 FILLER_15_113
*237 FILLER_15_125
*238 FILLER_15_137
*239 FILLER_15_149
*240 FILLER_15_15
*241 FILLER_15_161
*242 FILLER_15_167
*243 FILLER_15_169
*244 FILLER_15_181
*245 FILLER_15_193
*246 FILLER_15_205
*247 FILLER_15_217
*248 FILLER_15_223
*249 FILLER_15_225
*250 FILLER_15_237
*251 FILLER_15_249
*252 FILLER_15_261
*253 FILLER_15_27
*254 FILLER_15_273
*255 FILLER_15_279
*256 FILLER_15_281
*257 FILLER_15_293
*258 FILLER_15_3
*259 FILLER_15_39
*260 FILLER_15_51
*261 FILLER_15_55
*262 FILLER_15_57
*263 FILLER_15_69
*264 FILLER_15_81
*265 FILLER_15_93
*266 FILLER_16_109
*267 FILLER_16_121
*268 FILLER_16_133
*269 FILLER_16_139
*270 FILLER_16_141
*271 FILLER_16_153
*272 FILLER_16_165
*273 FILLER_16_177
*274 FILLER_16_18
*275 FILLER_16_189
*276 FILLER_16_195
*277 FILLER_16_197
*278 FILLER_16_209
*279 FILLER_16_221
*280 FILLER_16_233
*281 FILLER_16_245
*282 FILLER_16_251
*283 FILLER_16_253
*284 FILLER_16_26
*285 FILLER_16_265
*286 FILLER_16_277
*287 FILLER_16_289
*288 FILLER_16_29
*289 FILLER_16_297
*290 FILLER_16_41
*291 FILLER_16_53
*292 FILLER_16_6
*293 FILLER_16_65
*294 FILLER_16_77
*295 FILLER_16_83
*296 FILLER_16_85
*297 FILLER_16_97
*298 FILLER_17_105
*299 FILLER_17_111
*300 FILLER_17_113
*301 FILLER_17_125
*302 FILLER_17_137
*303 FILLER_17_149
*304 FILLER_17_15
*305 FILLER_17_161
*306 FILLER_17_167
*307 FILLER_17_169
*308 FILLER_17_181
*309 FILLER_17_193
*310 FILLER_17_205
*311 FILLER_17_217
*312 FILLER_17_223
*313 FILLER_17_225
*314 FILLER_17_237
*315 FILLER_17_249
*316 FILLER_17_261
*317 FILLER_17_27
*318 FILLER_17_273
*319 FILLER_17_279
*320 FILLER_17_281
*321 FILLER_17_293
*322 FILLER_17_3
*323 FILLER_17_39
*324 FILLER_17_51
*325 FILLER_17_55
*326 FILLER_17_57
*327 FILLER_17_69
*328 FILLER_17_81
*329 FILLER_17_93
*330 FILLER_18_109
*331 FILLER_18_121
*332 FILLER_18_133
*333 FILLER_18_139
*334 FILLER_18_141
*335 FILLER_18_153
*336 FILLER_18_165
*337 FILLER_18_177
*338 FILLER_18_189
*339 FILLER_18_195
*340 FILLER_18_197
*341 FILLER_18_20
*342 FILLER_18_209
*343 FILLER_18_221
*344 FILLER_18_233
*345 FILLER_18_245
*346 FILLER_18_251
*347 FILLER_18_253
*348 FILLER_18_265
*349 FILLER_18_277
*350 FILLER_18_289
*351 FILLER_18_29
*352 FILLER_18_297
*353 FILLER_18_41
*354 FILLER_18_53
*355 FILLER_18_65
*356 FILLER_18_77
*357 FILLER_18_8
*358 FILLER_18_83
*359 FILLER_18_85
*360 FILLER_18_97
*361 FILLER_19_105
*362 FILLER_19_111
*363 FILLER_19_113
*364 FILLER_19_125
*365 FILLER_19_137
*366 FILLER_19_149
*367 FILLER_19_161
*368 FILLER_19_167
*369 FILLER_19_169
*370 FILLER_19_18
*371 FILLER_19_181
*372 FILLER_19_193
*373 FILLER_19_205
*374 FILLER_19_217
*375 FILLER_19_223
*376 FILLER_19_225
*377 FILLER_19_237
*378 FILLER_19_249
*379 FILLER_19_261
*380 FILLER_19_273
*381 FILLER_19_279
*382 FILLER_19_281
*383 FILLER_19_293
*384 FILLER_19_30
*385 FILLER_19_42
*386 FILLER_19_54
*387 FILLER_19_57
*388 FILLER_19_6
*389 FILLER_19_69
*390 FILLER_19_81
*391 FILLER_19_93
*392 FILLER_1_105
*393 FILLER_1_111
*394 FILLER_1_113
*395 FILLER_1_125
*396 FILLER_1_137
*397 FILLER_1_149
*398 FILLER_1_15
*399 FILLER_1_161
*400 FILLER_1_167
*401 FILLER_1_169
*402 FILLER_1_181
*403 FILLER_1_193
*404 FILLER_1_205
*405 FILLER_1_217
*406 FILLER_1_223
*407 FILLER_1_225
*408 FILLER_1_237
*409 FILLER_1_249
*410 FILLER_1_261
*411 FILLER_1_27
*412 FILLER_1_273
*413 FILLER_1_279
*414 FILLER_1_281
*415 FILLER_1_293
*416 FILLER_1_3
*417 FILLER_1_39
*418 FILLER_1_51
*419 FILLER_1_55
*420 FILLER_1_57
*421 FILLER_1_69
*422 FILLER_1_81
*423 FILLER_1_93
*424 FILLER_20_109
*425 FILLER_20_121
*426 FILLER_20_133
*427 FILLER_20_139
*428 FILLER_20_141
*429 FILLER_20_153
*430 FILLER_20_165
*431 FILLER_20_177
*432 FILLER_20_18
*433 FILLER_20_189
*434 FILLER_20_195
*435 FILLER_20_197
*436 FILLER_20_209
*437 FILLER_20_221
*438 FILLER_20_233
*439 FILLER_20_245
*440 FILLER_20_251
*441 FILLER_20_253
*442 FILLER_20_26
*443 FILLER_20_265
*444 FILLER_20_277
*445 FILLER_20_289
*446 FILLER_20_29
*447 FILLER_20_297
*448 FILLER_20_41
*449 FILLER_20_53
*450 FILLER_20_6
*451 FILLER_20_65
*452 FILLER_20_77
*453 FILLER_20_83
*454 FILLER_20_85
*455 FILLER_20_97
*456 FILLER_21_105
*457 FILLER_21_111
*458 FILLER_21_113
*459 FILLER_21_125
*460 FILLER_21_137
*461 FILLER_21_149
*462 FILLER_21_161
*463 FILLER_21_167
*464 FILLER_21_169
*465 FILLER_21_181
*466 FILLER_21_19
*467 FILLER_21_193
*468 FILLER_21_205
*469 FILLER_21_217
*470 FILLER_21_223
*471 FILLER_21_225
*472 FILLER_21_237
*473 FILLER_21_249
*474 FILLER_21_261
*475 FILLER_21_273
*476 FILLER_21_279
*477 FILLER_21_281
*478 FILLER_21_293
*479 FILLER_21_31
*480 FILLER_21_43
*481 FILLER_21_55
*482 FILLER_21_57
*483 FILLER_21_69
*484 FILLER_21_81
*485 FILLER_21_93
*486 FILLER_22_109
*487 FILLER_22_121
*488 FILLER_22_133
*489 FILLER_22_139
*490 FILLER_22_141
*491 FILLER_22_153
*492 FILLER_22_165
*493 FILLER_22_177
*494 FILLER_22_189
*495 FILLER_22_195
*496 FILLER_22_197
*497 FILLER_22_209
*498 FILLER_22_221
*499 FILLER_22_233
*500 FILLER_22_24
*501 FILLER_22_245
*502 FILLER_22_251
*503 FILLER_22_253
*504 FILLER_22_265
*505 FILLER_22_277
*506 FILLER_22_289
*507 FILLER_22_29
*508 FILLER_22_297
*509 FILLER_22_3
*510 FILLER_22_41
*511 FILLER_22_53
*512 FILLER_22_65
*513 FILLER_22_77
*514 FILLER_22_83
*515 FILLER_22_85
*516 FILLER_22_97
*517 FILLER_23_105
*518 FILLER_23_111
*519 FILLER_23_113
*520 FILLER_23_125
*521 FILLER_23_137
*522 FILLER_23_149
*523 FILLER_23_15
*524 FILLER_23_161
*525 FILLER_23_167
*526 FILLER_23_169
*527 FILLER_23_181
*528 FILLER_23_193
*529 FILLER_23_205
*530 FILLER_23_217
*531 FILLER_23_223
*532 FILLER_23_225
*533 FILLER_23_237
*534 FILLER_23_249
*535 FILLER_23_261
*536 FILLER_23_27
*537 FILLER_23_273
*538 FILLER_23_279
*539 FILLER_23_281
*540 FILLER_23_293
*541 FILLER_23_3
*542 FILLER_23_39
*543 FILLER_23_51
*544 FILLER_23_55
*545 FILLER_23_57
*546 FILLER_23_69
*547 FILLER_23_81
*548 FILLER_23_93
*549 FILLER_24_109
*550 FILLER_24_121
*551 FILLER_24_133
*552 FILLER_24_139
*553 FILLER_24_141
*554 FILLER_24_153
*555 FILLER_24_165
*556 FILLER_24_177
*557 FILLER_24_18
*558 FILLER_24_189
*559 FILLER_24_195
*560 FILLER_24_197
*561 FILLER_24_209
*562 FILLER_24_221
*563 FILLER_24_233
*564 FILLER_24_245
*565 FILLER_24_251
*566 FILLER_24_253
*567 FILLER_24_26
*568 FILLER_24_265
*569 FILLER_24_277
*570 FILLER_24_289
*571 FILLER_24_29
*572 FILLER_24_297
*573 FILLER_24_41
*574 FILLER_24_53
*575 FILLER_24_6
*576 FILLER_24_65
*577 FILLER_24_77
*578 FILLER_24_83
*579 FILLER_24_85
*580 FILLER_24_97
*581 FILLER_25_105
*582 FILLER_25_111
*583 FILLER_25_113
*584 FILLER_25_125
*585 FILLER_25_137
*586 FILLER_25_149
*587 FILLER_25_15
*588 FILLER_25_161
*589 FILLER_25_167
*590 FILLER_25_169
*591 FILLER_25_181
*592 FILLER_25_193
*593 FILLER_25_205
*594 FILLER_25_217
*595 FILLER_25_223
*596 FILLER_25_225
*597 FILLER_25_237
*598 FILLER_25_249
*599 FILLER_25_261
*600 FILLER_25_27
*601 FILLER_25_273
*602 FILLER_25_279
*603 FILLER_25_281
*604 FILLER_25_293
*605 FILLER_25_3
*606 FILLER_25_39
*607 FILLER_25_51
*608 FILLER_25_55
*609 FILLER_25_57
*610 FILLER_25_69
*611 FILLER_25_81
*612 FILLER_25_93
*613 FILLER_26_109
*614 FILLER_26_121
*615 FILLER_26_133
*616 FILLER_26_139
*617 FILLER_26_141
*618 FILLER_26_15
*619 FILLER_26_153
*620 FILLER_26_165
*621 FILLER_26_177
*622 FILLER_26_189
*623 FILLER_26_195
*624 FILLER_26_197
*625 FILLER_26_209
*626 FILLER_26_221
*627 FILLER_26_233
*628 FILLER_26_245
*629 FILLER_26_251
*630 FILLER_26_253
*631 FILLER_26_265
*632 FILLER_26_27
*633 FILLER_26_277
*634 FILLER_26_289
*635 FILLER_26_29
*636 FILLER_26_297
*637 FILLER_26_3
*638 FILLER_26_41
*639 FILLER_26_53
*640 FILLER_26_65
*641 FILLER_26_77
*642 FILLER_26_83
*643 FILLER_26_85
*644 FILLER_26_97
*645 FILLER_27_105
*646 FILLER_27_111
*647 FILLER_27_113
*648 FILLER_27_125
*649 FILLER_27_137
*650 FILLER_27_149
*651 FILLER_27_161
*652 FILLER_27_167
*653 FILLER_27_169
*654 FILLER_27_181
*655 FILLER_27_19
*656 FILLER_27_193
*657 FILLER_27_205
*658 FILLER_27_217
*659 FILLER_27_223
*660 FILLER_27_225
*661 FILLER_27_237
*662 FILLER_27_249
*663 FILLER_27_261
*664 FILLER_27_273
*665 FILLER_27_279
*666 FILLER_27_281
*667 FILLER_27_293
*668 FILLER_27_31
*669 FILLER_27_43
*670 FILLER_27_55
*671 FILLER_27_57
*672 FILLER_27_69
*673 FILLER_27_7
*674 FILLER_27_81
*675 FILLER_27_93
*676 FILLER_28_109
*677 FILLER_28_121
*678 FILLER_28_133
*679 FILLER_28_139
*680 FILLER_28_141
*681 FILLER_28_153
*682 FILLER_28_165
*683 FILLER_28_177
*684 FILLER_28_189
*685 FILLER_28_195
*686 FILLER_28_197
*687 FILLER_28_209
*688 FILLER_28_221
*689 FILLER_28_233
*690 FILLER_28_24
*691 FILLER_28_245
*692 FILLER_28_251
*693 FILLER_28_253
*694 FILLER_28_265
*695 FILLER_28_277
*696 FILLER_28_289
*697 FILLER_28_29
*698 FILLER_28_297
*699 FILLER_28_3
*700 FILLER_28_41
*701 FILLER_28_53
*702 FILLER_28_65
*703 FILLER_28_77
*704 FILLER_28_83
*705 FILLER_28_85
*706 FILLER_28_97
*707 FILLER_29_105
*708 FILLER_29_111
*709 FILLER_29_113
*710 FILLER_29_125
*711 FILLER_29_137
*712 FILLER_29_149
*713 FILLER_29_161
*714 FILLER_29_167
*715 FILLER_29_169
*716 FILLER_29_181
*717 FILLER_29_19
*718 FILLER_29_193
*719 FILLER_29_205
*720 FILLER_29_217
*721 FILLER_29_223
*722 FILLER_29_225
*723 FILLER_29_237
*724 FILLER_29_249
*725 FILLER_29_261
*726 FILLER_29_273
*727 FILLER_29_279
*728 FILLER_29_281
*729 FILLER_29_293
*730 FILLER_29_31
*731 FILLER_29_43
*732 FILLER_29_55
*733 FILLER_29_57
*734 FILLER_29_69
*735 FILLER_29_7
*736 FILLER_29_81
*737 FILLER_29_93
*738 FILLER_2_109
*739 FILLER_2_121
*740 FILLER_2_133
*741 FILLER_2_139
*742 FILLER_2_141
*743 FILLER_2_15
*744 FILLER_2_153
*745 FILLER_2_165
*746 FILLER_2_177
*747 FILLER_2_189
*748 FILLER_2_195
*749 FILLER_2_197
*750 FILLER_2_209
*751 FILLER_2_221
*752 FILLER_2_233
*753 FILLER_2_245
*754 FILLER_2_251
*755 FILLER_2_253
*756 FILLER_2_265
*757 FILLER_2_27
*758 FILLER_2_277
*759 FILLER_2_289
*760 FILLER_2_29
*761 FILLER_2_297
*762 FILLER_2_3
*763 FILLER_2_41
*764 FILLER_2_53
*765 FILLER_2_65
*766 FILLER_2_77
*767 FILLER_2_83
*768 FILLER_2_85
*769 FILLER_2_97
*770 FILLER_30_109
*771 FILLER_30_11
*772 FILLER_30_121
*773 FILLER_30_133
*774 FILLER_30_139
*775 FILLER_30_141
*776 FILLER_30_153
*777 FILLER_30_165
*778 FILLER_30_177
*779 FILLER_30_18
*780 FILLER_30_189
*781 FILLER_30_195
*782 FILLER_30_197
*783 FILLER_30_209
*784 FILLER_30_221
*785 FILLER_30_233
*786 FILLER_30_245
*787 FILLER_30_251
*788 FILLER_30_253
*789 FILLER_30_26
*790 FILLER_30_265
*791 FILLER_30_277
*792 FILLER_30_289
*793 FILLER_30_29
*794 FILLER_30_297
*795 FILLER_30_3
*796 FILLER_30_41
*797 FILLER_30_53
*798 FILLER_30_65
*799 FILLER_30_77
*800 FILLER_30_83
*801 FILLER_30_85
*802 FILLER_30_97
*803 FILLER_31_105
*804 FILLER_31_111
*805 FILLER_31_113
*806 FILLER_31_125
*807 FILLER_31_137
*808 FILLER_31_149
*809 FILLER_31_161
*810 FILLER_31_167
*811 FILLER_31_169
*812 FILLER_31_181
*813 FILLER_31_193
*814 FILLER_31_205
*815 FILLER_31_217
*816 FILLER_31_223
*817 FILLER_31_225
*818 FILLER_31_237
*819 FILLER_31_249
*820 FILLER_31_261
*821 FILLER_31_27
*822 FILLER_31_273
*823 FILLER_31_279
*824 FILLER_31_281
*825 FILLER_31_293
*826 FILLER_31_3
*827 FILLER_31_39
*828 FILLER_31_51
*829 FILLER_31_55
*830 FILLER_31_57
*831 FILLER_31_69
*832 FILLER_31_81
*833 FILLER_31_93
*834 FILLER_32_109
*835 FILLER_32_121
*836 FILLER_32_133
*837 FILLER_32_139
*838 FILLER_32_141
*839 FILLER_32_153
*840 FILLER_32_165
*841 FILLER_32_177
*842 FILLER_32_189
*843 FILLER_32_19
*844 FILLER_32_195
*845 FILLER_32_197
*846 FILLER_32_209
*847 FILLER_32_221
*848 FILLER_32_233
*849 FILLER_32_245
*850 FILLER_32_251
*851 FILLER_32_253
*852 FILLER_32_265
*853 FILLER_32_27
*854 FILLER_32_277
*855 FILLER_32_289
*856 FILLER_32_29
*857 FILLER_32_297
*858 FILLER_32_41
*859 FILLER_32_53
*860 FILLER_32_65
*861 FILLER_32_77
*862 FILLER_32_83
*863 FILLER_32_85
*864 FILLER_32_97
*865 FILLER_33_105
*866 FILLER_33_111
*867 FILLER_33_113
*868 FILLER_33_125
*869 FILLER_33_137
*870 FILLER_33_149
*871 FILLER_33_161
*872 FILLER_33_167
*873 FILLER_33_169
*874 FILLER_33_181
*875 FILLER_33_19
*876 FILLER_33_193
*877 FILLER_33_205
*878 FILLER_33_217
*879 FILLER_33_223
*880 FILLER_33_225
*881 FILLER_33_237
*882 FILLER_33_249
*883 FILLER_33_261
*884 FILLER_33_27
*885 FILLER_33_273
*886 FILLER_33_279
*887 FILLER_33_281
*888 FILLER_33_293
*889 FILLER_33_39
*890 FILLER_33_51
*891 FILLER_33_55
*892 FILLER_33_57
*893 FILLER_33_69
*894 FILLER_33_81
*895 FILLER_33_93
*896 FILLER_34_109
*897 FILLER_34_121
*898 FILLER_34_133
*899 FILLER_34_139
*900 FILLER_34_141
*901 FILLER_34_153
*902 FILLER_34_165
*903 FILLER_34_177
*904 FILLER_34_189
*905 FILLER_34_19
*906 FILLER_34_195
*907 FILLER_34_197
*908 FILLER_34_209
*909 FILLER_34_221
*910 FILLER_34_233
*911 FILLER_34_245
*912 FILLER_34_251
*913 FILLER_34_253
*914 FILLER_34_265
*915 FILLER_34_27
*916 FILLER_34_277
*917 FILLER_34_289
*918 FILLER_34_297
*919 FILLER_34_33
*920 FILLER_34_45
*921 FILLER_34_57
*922 FILLER_34_69
*923 FILLER_34_81
*924 FILLER_34_85
*925 FILLER_34_9
*926 FILLER_34_97
*927 FILLER_35_105
*928 FILLER_35_111
*929 FILLER_35_113
*930 FILLER_35_125
*931 FILLER_35_137
*932 FILLER_35_149
*933 FILLER_35_161
*934 FILLER_35_167
*935 FILLER_35_169
*936 FILLER_35_181
*937 FILLER_35_19
*938 FILLER_35_193
*939 FILLER_35_205
*940 FILLER_35_217
*941 FILLER_35_223
*942 FILLER_35_225
*943 FILLER_35_237
*944 FILLER_35_249
*945 FILLER_35_261
*946 FILLER_35_273
*947 FILLER_35_279
*948 FILLER_35_281
*949 FILLER_35_293
*950 FILLER_35_31
*951 FILLER_35_43
*952 FILLER_35_55
*953 FILLER_35_57
*954 FILLER_35_69
*955 FILLER_35_81
*956 FILLER_35_9
*957 FILLER_35_93
*958 FILLER_36_109
*959 FILLER_36_121
*960 FILLER_36_133
*961 FILLER_36_139
*962 FILLER_36_141
*963 FILLER_36_153
*964 FILLER_36_16
*965 FILLER_36_165
*966 FILLER_36_177
*967 FILLER_36_189
*968 FILLER_36_195
*969 FILLER_36_197
*970 FILLER_36_209
*971 FILLER_36_221
*972 FILLER_36_23
*973 FILLER_36_233
*974 FILLER_36_245
*975 FILLER_36_251
*976 FILLER_36_253
*977 FILLER_36_265
*978 FILLER_36_27
*979 FILLER_36_277
*980 FILLER_36_289
*981 FILLER_36_29
*982 FILLER_36_297
*983 FILLER_36_41
*984 FILLER_36_53
*985 FILLER_36_65
*986 FILLER_36_77
*987 FILLER_36_83
*988 FILLER_36_85
*989 FILLER_36_9
*990 FILLER_36_97
*991 FILLER_37_105
*992 FILLER_37_111
*993 FILLER_37_113
*994 FILLER_37_125
*995 FILLER_37_137
*996 FILLER_37_149
*997 FILLER_37_161
*998 FILLER_37_167
*999 FILLER_37_169
*1000 FILLER_37_181
*1001 FILLER_37_193
*1002 FILLER_37_20
*1003 FILLER_37_205
*1004 FILLER_37_217
*1005 FILLER_37_223
*1006 FILLER_37_225
*1007 FILLER_37_237
*1008 FILLER_37_249
*1009 FILLER_37_261
*1010 FILLER_37_273
*1011 FILLER_37_279
*1012 FILLER_37_281
*1013 FILLER_37_293
*1014 FILLER_37_32
*1015 FILLER_37_44
*1016 FILLER_37_57
*1017 FILLER_37_69
*1018 FILLER_37_8
*1019 FILLER_37_81
*1020 FILLER_37_93
*1021 FILLER_38_109
*1022 FILLER_38_121
*1023 FILLER_38_133
*1024 FILLER_38_139
*1025 FILLER_38_141
*1026 FILLER_38_153
*1027 FILLER_38_165
*1028 FILLER_38_177
*1029 FILLER_38_189
*1030 FILLER_38_19
*1031 FILLER_38_195
*1032 FILLER_38_197
*1033 FILLER_38_209
*1034 FILLER_38_221
*1035 FILLER_38_233
*1036 FILLER_38_245
*1037 FILLER_38_251
*1038 FILLER_38_253
*1039 FILLER_38_265
*1040 FILLER_38_27
*1041 FILLER_38_277
*1042 FILLER_38_289
*1043 FILLER_38_29
*1044 FILLER_38_297
*1045 FILLER_38_41
*1046 FILLER_38_53
*1047 FILLER_38_65
*1048 FILLER_38_7
*1049 FILLER_38_77
*1050 FILLER_38_83
*1051 FILLER_38_85
*1052 FILLER_38_97
*1053 FILLER_39_105
*1054 FILLER_39_111
*1055 FILLER_39_113
*1056 FILLER_39_125
*1057 FILLER_39_137
*1058 FILLER_39_149
*1059 FILLER_39_161
*1060 FILLER_39_167
*1061 FILLER_39_169
*1062 FILLER_39_181
*1063 FILLER_39_19
*1064 FILLER_39_193
*1065 FILLER_39_205
*1066 FILLER_39_217
*1067 FILLER_39_223
*1068 FILLER_39_225
*1069 FILLER_39_237
*1070 FILLER_39_249
*1071 FILLER_39_261
*1072 FILLER_39_273
*1073 FILLER_39_279
*1074 FILLER_39_281
*1075 FILLER_39_293
*1076 FILLER_39_31
*1077 FILLER_39_43
*1078 FILLER_39_55
*1079 FILLER_39_57
*1080 FILLER_39_69
*1081 FILLER_39_7
*1082 FILLER_39_81
*1083 FILLER_39_93
*1084 FILLER_3_105
*1085 FILLER_3_111
*1086 FILLER_3_113
*1087 FILLER_3_125
*1088 FILLER_3_137
*1089 FILLER_3_149
*1090 FILLER_3_15
*1091 FILLER_3_161
*1092 FILLER_3_167
*1093 FILLER_3_169
*1094 FILLER_3_181
*1095 FILLER_3_193
*1096 FILLER_3_205
*1097 FILLER_3_217
*1098 FILLER_3_223
*1099 FILLER_3_225
*1100 FILLER_3_237
*1101 FILLER_3_249
*1102 FILLER_3_261
*1103 FILLER_3_27
*1104 FILLER_3_273
*1105 FILLER_3_279
*1106 FILLER_3_281
*1107 FILLER_3_293
*1108 FILLER_3_3
*1109 FILLER_3_39
*1110 FILLER_3_51
*1111 FILLER_3_55
*1112 FILLER_3_57
*1113 FILLER_3_69
*1114 FILLER_3_81
*1115 FILLER_3_93
*1116 FILLER_40_109
*1117 FILLER_40_121
*1118 FILLER_40_133
*1119 FILLER_40_139
*1120 FILLER_40_141
*1121 FILLER_40_15
*1122 FILLER_40_153
*1123 FILLER_40_165
*1124 FILLER_40_177
*1125 FILLER_40_189
*1126 FILLER_40_195
*1127 FILLER_40_197
*1128 FILLER_40_209
*1129 FILLER_40_221
*1130 FILLER_40_233
*1131 FILLER_40_245
*1132 FILLER_40_251
*1133 FILLER_40_253
*1134 FILLER_40_265
*1135 FILLER_40_27
*1136 FILLER_40_277
*1137 FILLER_40_289
*1138 FILLER_40_29
*1139 FILLER_40_297
*1140 FILLER_40_3
*1141 FILLER_40_41
*1142 FILLER_40_53
*1143 FILLER_40_65
*1144 FILLER_40_77
*1145 FILLER_40_83
*1146 FILLER_40_85
*1147 FILLER_40_97
*1148 FILLER_41_105
*1149 FILLER_41_111
*1150 FILLER_41_113
*1151 FILLER_41_125
*1152 FILLER_41_137
*1153 FILLER_41_149
*1154 FILLER_41_161
*1155 FILLER_41_167
*1156 FILLER_41_169
*1157 FILLER_41_181
*1158 FILLER_41_19
*1159 FILLER_41_193
*1160 FILLER_41_205
*1161 FILLER_41_217
*1162 FILLER_41_223
*1163 FILLER_41_225
*1164 FILLER_41_237
*1165 FILLER_41_249
*1166 FILLER_41_261
*1167 FILLER_41_273
*1168 FILLER_41_279
*1169 FILLER_41_281
*1170 FILLER_41_293
*1171 FILLER_41_31
*1172 FILLER_41_43
*1173 FILLER_41_55
*1174 FILLER_41_57
*1175 FILLER_41_69
*1176 FILLER_41_7
*1177 FILLER_41_81
*1178 FILLER_41_93
*1179 FILLER_42_109
*1180 FILLER_42_121
*1181 FILLER_42_133
*1182 FILLER_42_139
*1183 FILLER_42_141
*1184 FILLER_42_153
*1185 FILLER_42_165
*1186 FILLER_42_177
*1187 FILLER_42_189
*1188 FILLER_42_19
*1189 FILLER_42_195
*1190 FILLER_42_197
*1191 FILLER_42_209
*1192 FILLER_42_221
*1193 FILLER_42_233
*1194 FILLER_42_245
*1195 FILLER_42_251
*1196 FILLER_42_253
*1197 FILLER_42_265
*1198 FILLER_42_27
*1199 FILLER_42_277
*1200 FILLER_42_289
*1201 FILLER_42_29
*1202 FILLER_42_297
*1203 FILLER_42_41
*1204 FILLER_42_53
*1205 FILLER_42_65
*1206 FILLER_42_7
*1207 FILLER_42_77
*1208 FILLER_42_83
*1209 FILLER_42_85
*1210 FILLER_42_97
*1211 FILLER_43_105
*1212 FILLER_43_111
*1213 FILLER_43_113
*1214 FILLER_43_125
*1215 FILLER_43_137
*1216 FILLER_43_149
*1217 FILLER_43_161
*1218 FILLER_43_167
*1219 FILLER_43_169
*1220 FILLER_43_181
*1221 FILLER_43_19
*1222 FILLER_43_193
*1223 FILLER_43_205
*1224 FILLER_43_217
*1225 FILLER_43_223
*1226 FILLER_43_225
*1227 FILLER_43_237
*1228 FILLER_43_249
*1229 FILLER_43_261
*1230 FILLER_43_273
*1231 FILLER_43_279
*1232 FILLER_43_281
*1233 FILLER_43_293
*1234 FILLER_43_31
*1235 FILLER_43_43
*1236 FILLER_43_55
*1237 FILLER_43_57
*1238 FILLER_43_69
*1239 FILLER_43_7
*1240 FILLER_43_81
*1241 FILLER_43_93
*1242 FILLER_44_109
*1243 FILLER_44_121
*1244 FILLER_44_133
*1245 FILLER_44_139
*1246 FILLER_44_141
*1247 FILLER_44_15
*1248 FILLER_44_153
*1249 FILLER_44_165
*1250 FILLER_44_177
*1251 FILLER_44_189
*1252 FILLER_44_195
*1253 FILLER_44_197
*1254 FILLER_44_209
*1255 FILLER_44_221
*1256 FILLER_44_233
*1257 FILLER_44_245
*1258 FILLER_44_251
*1259 FILLER_44_253
*1260 FILLER_44_265
*1261 FILLER_44_27
*1262 FILLER_44_277
*1263 FILLER_44_289
*1264 FILLER_44_29
*1265 FILLER_44_297
*1266 FILLER_44_3
*1267 FILLER_44_41
*1268 FILLER_44_53
*1269 FILLER_44_65
*1270 FILLER_44_77
*1271 FILLER_44_83
*1272 FILLER_44_85
*1273 FILLER_44_97
*1274 FILLER_45_105
*1275 FILLER_45_111
*1276 FILLER_45_113
*1277 FILLER_45_125
*1278 FILLER_45_137
*1279 FILLER_45_149
*1280 FILLER_45_15
*1281 FILLER_45_161
*1282 FILLER_45_167
*1283 FILLER_45_169
*1284 FILLER_45_181
*1285 FILLER_45_193
*1286 FILLER_45_205
*1287 FILLER_45_217
*1288 FILLER_45_223
*1289 FILLER_45_225
*1290 FILLER_45_237
*1291 FILLER_45_249
*1292 FILLER_45_261
*1293 FILLER_45_27
*1294 FILLER_45_273
*1295 FILLER_45_279
*1296 FILLER_45_281
*1297 FILLER_45_293
*1298 FILLER_45_3
*1299 FILLER_45_39
*1300 FILLER_45_51
*1301 FILLER_45_55
*1302 FILLER_45_57
*1303 FILLER_45_69
*1304 FILLER_45_81
*1305 FILLER_45_93
*1306 FILLER_46_109
*1307 FILLER_46_121
*1308 FILLER_46_133
*1309 FILLER_46_139
*1310 FILLER_46_141
*1311 FILLER_46_15
*1312 FILLER_46_153
*1313 FILLER_46_165
*1314 FILLER_46_177
*1315 FILLER_46_189
*1316 FILLER_46_195
*1317 FILLER_46_197
*1318 FILLER_46_209
*1319 FILLER_46_221
*1320 FILLER_46_233
*1321 FILLER_46_245
*1322 FILLER_46_251
*1323 FILLER_46_253
*1324 FILLER_46_265
*1325 FILLER_46_27
*1326 FILLER_46_277
*1327 FILLER_46_289
*1328 FILLER_46_29
*1329 FILLER_46_297
*1330 FILLER_46_3
*1331 FILLER_46_41
*1332 FILLER_46_53
*1333 FILLER_46_65
*1334 FILLER_46_77
*1335 FILLER_46_83
*1336 FILLER_46_85
*1337 FILLER_46_97
*1338 FILLER_47_105
*1339 FILLER_47_111
*1340 FILLER_47_113
*1341 FILLER_47_125
*1342 FILLER_47_137
*1343 FILLER_47_149
*1344 FILLER_47_15
*1345 FILLER_47_161
*1346 FILLER_47_167
*1347 FILLER_47_169
*1348 FILLER_47_181
*1349 FILLER_47_193
*1350 FILLER_47_205
*1351 FILLER_47_217
*1352 FILLER_47_223
*1353 FILLER_47_225
*1354 FILLER_47_237
*1355 FILLER_47_249
*1356 FILLER_47_261
*1357 FILLER_47_27
*1358 FILLER_47_273
*1359 FILLER_47_279
*1360 FILLER_47_281
*1361 FILLER_47_293
*1362 FILLER_47_3
*1363 FILLER_47_39
*1364 FILLER_47_51
*1365 FILLER_47_55
*1366 FILLER_47_57
*1367 FILLER_47_69
*1368 FILLER_47_81
*1369 FILLER_47_93
*1370 FILLER_48_109
*1371 FILLER_48_121
*1372 FILLER_48_133
*1373 FILLER_48_139
*1374 FILLER_48_141
*1375 FILLER_48_15
*1376 FILLER_48_153
*1377 FILLER_48_165
*1378 FILLER_48_177
*1379 FILLER_48_189
*1380 FILLER_48_195
*1381 FILLER_48_197
*1382 FILLER_48_209
*1383 FILLER_48_221
*1384 FILLER_48_233
*1385 FILLER_48_245
*1386 FILLER_48_251
*1387 FILLER_48_253
*1388 FILLER_48_265
*1389 FILLER_48_27
*1390 FILLER_48_277
*1391 FILLER_48_289
*1392 FILLER_48_29
*1393 FILLER_48_297
*1394 FILLER_48_3
*1395 FILLER_48_41
*1396 FILLER_48_53
*1397 FILLER_48_65
*1398 FILLER_48_77
*1399 FILLER_48_83
*1400 FILLER_48_85
*1401 FILLER_48_97
*1402 FILLER_49_105
*1403 FILLER_49_111
*1404 FILLER_49_113
*1405 FILLER_49_125
*1406 FILLER_49_137
*1407 FILLER_49_149
*1408 FILLER_49_15
*1409 FILLER_49_161
*1410 FILLER_49_167
*1411 FILLER_49_169
*1412 FILLER_49_181
*1413 FILLER_49_193
*1414 FILLER_49_205
*1415 FILLER_49_217
*1416 FILLER_49_223
*1417 FILLER_49_225
*1418 FILLER_49_237
*1419 FILLER_49_249
*1420 FILLER_49_261
*1421 FILLER_49_27
*1422 FILLER_49_273
*1423 FILLER_49_279
*1424 FILLER_49_281
*1425 FILLER_49_293
*1426 FILLER_49_3
*1427 FILLER_49_39
*1428 FILLER_49_51
*1429 FILLER_49_55
*1430 FILLER_49_57
*1431 FILLER_49_69
*1432 FILLER_49_81
*1433 FILLER_49_93
*1434 FILLER_4_109
*1435 FILLER_4_121
*1436 FILLER_4_133
*1437 FILLER_4_139
*1438 FILLER_4_141
*1439 FILLER_4_15
*1440 FILLER_4_153
*1441 FILLER_4_165
*1442 FILLER_4_177
*1443 FILLER_4_189
*1444 FILLER_4_195
*1445 FILLER_4_197
*1446 FILLER_4_209
*1447 FILLER_4_221
*1448 FILLER_4_233
*1449 FILLER_4_245
*1450 FILLER_4_251
*1451 FILLER_4_253
*1452 FILLER_4_265
*1453 FILLER_4_27
*1454 FILLER_4_277
*1455 FILLER_4_289
*1456 FILLER_4_29
*1457 FILLER_4_297
*1458 FILLER_4_3
*1459 FILLER_4_41
*1460 FILLER_4_53
*1461 FILLER_4_65
*1462 FILLER_4_77
*1463 FILLER_4_83
*1464 FILLER_4_85
*1465 FILLER_4_97
*1466 FILLER_50_109
*1467 FILLER_50_121
*1468 FILLER_50_133
*1469 FILLER_50_139
*1470 FILLER_50_141
*1471 FILLER_50_15
*1472 FILLER_50_153
*1473 FILLER_50_165
*1474 FILLER_50_177
*1475 FILLER_50_189
*1476 FILLER_50_195
*1477 FILLER_50_197
*1478 FILLER_50_209
*1479 FILLER_50_221
*1480 FILLER_50_233
*1481 FILLER_50_245
*1482 FILLER_50_251
*1483 FILLER_50_253
*1484 FILLER_50_265
*1485 FILLER_50_27
*1486 FILLER_50_277
*1487 FILLER_50_289
*1488 FILLER_50_29
*1489 FILLER_50_297
*1490 FILLER_50_3
*1491 FILLER_50_41
*1492 FILLER_50_53
*1493 FILLER_50_65
*1494 FILLER_50_77
*1495 FILLER_50_83
*1496 FILLER_50_85
*1497 FILLER_50_97
*1498 FILLER_51_105
*1499 FILLER_51_111
*1500 FILLER_51_113
*1501 FILLER_51_125
*1502 FILLER_51_137
*1503 FILLER_51_149
*1504 FILLER_51_15
*1505 FILLER_51_161
*1506 FILLER_51_167
*1507 FILLER_51_169
*1508 FILLER_51_181
*1509 FILLER_51_193
*1510 FILLER_51_205
*1511 FILLER_51_217
*1512 FILLER_51_223
*1513 FILLER_51_225
*1514 FILLER_51_237
*1515 FILLER_51_249
*1516 FILLER_51_261
*1517 FILLER_51_27
*1518 FILLER_51_273
*1519 FILLER_51_279
*1520 FILLER_51_281
*1521 FILLER_51_293
*1522 FILLER_51_3
*1523 FILLER_51_39
*1524 FILLER_51_51
*1525 FILLER_51_55
*1526 FILLER_51_57
*1527 FILLER_51_69
*1528 FILLER_51_81
*1529 FILLER_51_93
*1530 FILLER_52_109
*1531 FILLER_52_121
*1532 FILLER_52_133
*1533 FILLER_52_139
*1534 FILLER_52_141
*1535 FILLER_52_15
*1536 FILLER_52_153
*1537 FILLER_52_165
*1538 FILLER_52_177
*1539 FILLER_52_189
*1540 FILLER_52_195
*1541 FILLER_52_197
*1542 FILLER_52_209
*1543 FILLER_52_221
*1544 FILLER_52_233
*1545 FILLER_52_245
*1546 FILLER_52_251
*1547 FILLER_52_253
*1548 FILLER_52_265
*1549 FILLER_52_27
*1550 FILLER_52_277
*1551 FILLER_52_289
*1552 FILLER_52_29
*1553 FILLER_52_297
*1554 FILLER_52_3
*1555 FILLER_52_41
*1556 FILLER_52_53
*1557 FILLER_52_65
*1558 FILLER_52_77
*1559 FILLER_52_83
*1560 FILLER_52_85
*1561 FILLER_52_97
*1562 FILLER_53_105
*1563 FILLER_53_111
*1564 FILLER_53_113
*1565 FILLER_53_125
*1566 FILLER_53_137
*1567 FILLER_53_149
*1568 FILLER_53_15
*1569 FILLER_53_161
*1570 FILLER_53_167
*1571 FILLER_53_169
*1572 FILLER_53_181
*1573 FILLER_53_193
*1574 FILLER_53_205
*1575 FILLER_53_217
*1576 FILLER_53_223
*1577 FILLER_53_225
*1578 FILLER_53_237
*1579 FILLER_53_249
*1580 FILLER_53_261
*1581 FILLER_53_27
*1582 FILLER_53_273
*1583 FILLER_53_279
*1584 FILLER_53_281