*SPEF "ieee 1481-1999"
*DESIGN "user_module_349729432862196307"
*DATE "11:11:11 Fri 11 11, 1111"
*VENDOR "OpenRCX"
*PROGRAM "Parallel Extraction"
*VERSION "1.0"
*DESIGN_FLOW "NAME_SCOPE LOCAL" "PIN_CAP NONE"
*DIVIDER /
*DELIMITER :
*BUS_DELIMITER []
*T_UNIT 1 NS
*C_UNIT 1 PF
*R_UNIT 1 OHM
*L_UNIT 1 HENRY

*NAME_MAP
*1 io_in[0]
*2 io_in[1]
*3 io_in[2]
*4 io_in[3]
*5 io_in[4]
*6 io_in[5]
*7 io_in[6]
*8 io_in[7]
*9 io_out[0]
*10 net9
*11 net10
*12 io_out[3]
*13 io_out[4]
*14 io_out[5]
*15 net8
*16 io_out[7]
*19 _00_
*20 _01_
*21 _02_
*22 _03_
*23 _04_
*24 _05_
*25 _06_
*26 _07_
*27 _08_
*28 _09_
*29 _10_
*30 _11_
*31 _12_
*32 _13_
*33 _14_
*34 _15_
*35 _16_
*36 _17_
*37 _18_
*38 _19_
*39 _20_
*40 _21_
*41 _22_
*42 _23_
*43 _24_
*44 _25_
*45 _26_
*46 clknet_0_flipflop10\.clk
*47 clknet_0_gate2\.a
*48 clknet_0_io_in[0]
*49 clknet_1_0__leaf_flipflop10\.clk
*50 clknet_1_0__leaf_gate2\.a
*51 clknet_1_0__leaf_io_in[0]
*52 clknet_1_1__leaf_flipflop10\.clk
*53 clknet_1_1__leaf_gate2\.a
*54 clknet_1_1__leaf_io_in[0]
*55 flipflop1\.q
*56 flipflop10\.clk
*57 flipflop10\.q
*58 flipflop11\.q
*59 flipflop12\.q
*60 flipflop13\.q
*61 flipflop14\.q
*62 flipflop2\.q
*63 flipflop3\.d
*64 flipflop3\.q
*65 flipflop4\.d
*66 flipflop4\.q
*67 flipflop5\.d
*68 flipflop5\.q
*69 flipflop6\.d
*70 flipflop6\.q
*71 flipflop7\.d
*72 flipflop7\.q
*73 flipflop8\.d
*74 flipflop8\.q
*75 flipflop9\.q
*76 gate2\.a
*77 net1
*78 net2
*79 net3
*80 net4
*81 net5
*82 net6
*83 net7
*84 FILLER_0_109
*85 FILLER_0_113
*86 FILLER_0_125
*87 FILLER_0_137
*88 FILLER_0_141
*89 FILLER_0_15
*90 FILLER_0_153
*91 FILLER_0_165
*92 FILLER_0_169
*93 FILLER_0_181
*94 FILLER_0_193
*95 FILLER_0_197
*96 FILLER_0_209
*97 FILLER_0_221
*98 FILLER_0_225
*99 FILLER_0_237
*100 FILLER_0_249
*101 FILLER_0_253
*102 FILLER_0_265
*103 FILLER_0_27
*104 FILLER_0_277
*105 FILLER_0_281
*106 FILLER_0_29
*107 FILLER_0_293
*108 FILLER_0_3
*109 FILLER_0_41
*110 FILLER_0_53
*111 FILLER_0_57
*112 FILLER_0_69
*113 FILLER_0_81
*114 FILLER_0_85
*115 FILLER_0_97
*116 FILLER_10_109
*117 FILLER_10_121
*118 FILLER_10_133
*119 FILLER_10_139
*120 FILLER_10_141
*121 FILLER_10_15
*122 FILLER_10_153
*123 FILLER_10_165
*124 FILLER_10_177
*125 FILLER_10_189
*126 FILLER_10_195
*127 FILLER_10_197
*128 FILLER_10_209
*129 FILLER_10_221
*130 FILLER_10_233
*131 FILLER_10_245
*132 FILLER_10_251
*133 FILLER_10_253
*134 FILLER_10_265
*135 FILLER_10_27
*136 FILLER_10_277
*137 FILLER_10_289
*138 FILLER_10_29
*139 FILLER_10_297
*140 FILLER_10_3
*141 FILLER_10_41
*142 FILLER_10_53
*143 FILLER_10_65
*144 FILLER_10_77
*145 FILLER_10_83
*146 FILLER_10_85
*147 FILLER_10_97
*148 FILLER_11_105
*149 FILLER_11_111
*150 FILLER_11_113
*151 FILLER_11_125
*152 FILLER_11_137
*153 FILLER_11_149
*154 FILLER_11_15
*155 FILLER_11_161
*156 FILLER_11_167
*157 FILLER_11_169
*158 FILLER_11_181
*159 FILLER_11_193
*160 FILLER_11_205
*161 FILLER_11_217
*162 FILLER_11_223
*163 FILLER_11_225
*164 FILLER_11_237
*165 FILLER_11_249
*166 FILLER_11_261
*167 FILLER_11_27
*168 FILLER_11_273
*169 FILLER_11_279
*170 FILLER_11_281
*171 FILLER_11_293
*172 FILLER_11_3
*173 FILLER_11_39
*174 FILLER_11_51
*175 FILLER_11_55
*176 FILLER_11_57
*177 FILLER_11_69
*178 FILLER_11_81
*179 FILLER_11_93
*180 FILLER_12_109
*181 FILLER_12_121
*182 FILLER_12_133
*183 FILLER_12_139
*184 FILLER_12_141
*185 FILLER_12_153
*186 FILLER_12_165
*187 FILLER_12_177
*188 FILLER_12_18
*189 FILLER_12_189
*190 FILLER_12_195
*191 FILLER_12_197
*192 FILLER_12_209
*193 FILLER_12_221
*194 FILLER_12_233
*195 FILLER_12_245
*196 FILLER_12_251
*197 FILLER_12_253
*198 FILLER_12_26
*199 FILLER_12_265
*200 FILLER_12_277
*201 FILLER_12_289
*202 FILLER_12_29
*203 FILLER_12_297
*204 FILLER_12_41
*205 FILLER_12_53
*206 FILLER_12_6
*207 FILLER_12_65
*208 FILLER_12_77
*209 FILLER_12_83
*210 FILLER_12_85
*211 FILLER_12_97
*212 FILLER_13_105
*213 FILLER_13_111
*214 FILLER_13_113
*215 FILLER_13_125
*216 FILLER_13_137
*217 FILLER_13_149
*218 FILLER_13_15
*219 FILLER_13_161
*220 FILLER_13_167
*221 FILLER_13_169
*222 FILLER_13_181
*223 FILLER_13_193
*224 FILLER_13_205
*225 FILLER_13_217
*226 FILLER_13_223
*227 FILLER_13_225
*228 FILLER_13_237
*229 FILLER_13_249
*230 FILLER_13_261
*231 FILLER_13_27
*232 FILLER_13_273
*233 FILLER_13_279
*234 FILLER_13_281
*235 FILLER_13_293
*236 FILLER_13_3
*237 FILLER_13_39
*238 FILLER_13_51
*239 FILLER_13_55
*240 FILLER_13_57
*241 FILLER_13_69
*242 FILLER_13_81
*243 FILLER_13_93
*244 FILLER_14_109
*245 FILLER_14_121
*246 FILLER_14_133
*247 FILLER_14_139
*248 FILLER_14_141
*249 FILLER_14_15
*250 FILLER_14_153
*251 FILLER_14_165
*252 FILLER_14_177
*253 FILLER_14_189
*254 FILLER_14_195
*255 FILLER_14_197
*256 FILLER_14_209
*257 FILLER_14_221
*258 FILLER_14_233
*259 FILLER_14_245
*260 FILLER_14_251
*261 FILLER_14_253
*262 FILLER_14_265
*263 FILLER_14_27
*264 FILLER_14_277
*265 FILLER_14_289
*266 FILLER_14_29
*267 FILLER_14_297
*268 FILLER_14_3
*269 FILLER_14_41
*270 FILLER_14_53
*271 FILLER_14_65
*272 FILLER_14_77
*273 FILLER_14_83
*274 FILLER_14_85
*275 FILLER_14_97
*276 FILLER_15_105
*277 FILLER_15_111
*278 FILLER_15_113
*279 FILLER_15_125
*280 FILLER_15_137
*281 FILLER_15_149
*282 FILLER_15_161
*283 FILLER_15_167
*284 FILLER_15_169
*285 FILLER_15_18
*286 FILLER_15_181
*287 FILLER_15_193
*288 FILLER_15_205
*289 FILLER_15_217
*290 FILLER_15_223
*291 FILLER_15_225
*292 FILLER_15_237
*293 FILLER_15_249
*294 FILLER_15_261
*295 FILLER_15_273
*296 FILLER_15_279
*297 FILLER_15_281
*298 FILLER_15_293
*299 FILLER_15_30
*300 FILLER_15_42
*301 FILLER_15_54
*302 FILLER_15_57
*303 FILLER_15_6
*304 FILLER_15_69
*305 FILLER_15_81
*306 FILLER_15_93
*307 FILLER_16_10
*308 FILLER_16_109
*309 FILLER_16_121
*310 FILLER_16_133
*311 FILLER_16_139
*312 FILLER_16_141
*313 FILLER_16_153
*314 FILLER_16_165
*315 FILLER_16_177
*316 FILLER_16_189
*317 FILLER_16_195
*318 FILLER_16_197
*319 FILLER_16_209
*320 FILLER_16_22
*321 FILLER_16_221
*322 FILLER_16_233
*323 FILLER_16_245
*324 FILLER_16_251
*325 FILLER_16_253
*326 FILLER_16_265
*327 FILLER_16_277
*328 FILLER_16_289
*329 FILLER_16_29
*330 FILLER_16_297
*331 FILLER_16_3
*332 FILLER_16_41
*333 FILLER_16_53
*334 FILLER_16_65
*335 FILLER_16_77
*336 FILLER_16_83
*337 FILLER_16_85
*338 FILLER_16_97
*339 FILLER_17_105
*340 FILLER_17_111
*341 FILLER_17_113
*342 FILLER_17_125
*343 FILLER_17_13
*344 FILLER_17_137
*345 FILLER_17_149
*346 FILLER_17_161
*347 FILLER_17_167
*348 FILLER_17_169
*349 FILLER_17_181
*350 FILLER_17_193
*351 FILLER_17_205
*352 FILLER_17_21
*353 FILLER_17_217
*354 FILLER_17_223
*355 FILLER_17_225
*356 FILLER_17_237
*357 FILLER_17_249
*358 FILLER_17_26
*359 FILLER_17_261
*360 FILLER_17_273
*361 FILLER_17_279
*362 FILLER_17_281
*363 FILLER_17_293
*364 FILLER_17_3
*365 FILLER_17_38
*366 FILLER_17_50
*367 FILLER_17_57
*368 FILLER_17_69
*369 FILLER_17_81
*370 FILLER_17_93
*371 FILLER_18_109
*372 FILLER_18_121
*373 FILLER_18_133
*374 FILLER_18_139
*375 FILLER_18_141
*376 FILLER_18_15
*377 FILLER_18_153
*378 FILLER_18_165
*379 FILLER_18_177
*380 FILLER_18_189
*381 FILLER_18_195
*382 FILLER_18_197
*383 FILLER_18_209
*384 FILLER_18_221
*385 FILLER_18_233
*386 FILLER_18_245
*387 FILLER_18_251
*388 FILLER_18_253
*389 FILLER_18_265
*390 FILLER_18_27
*391 FILLER_18_277
*392 FILLER_18_289
*393 FILLER_18_29
*394 FILLER_18_297
*395 FILLER_18_3
*396 FILLER_18_41
*397 FILLER_18_53
*398 FILLER_18_65
*399 FILLER_18_77
*400 FILLER_18_83
*401 FILLER_18_85
*402 FILLER_18_97
*403 FILLER_19_105
*404 FILLER_19_111
*405 FILLER_19_113
*406 FILLER_19_125
*407 FILLER_19_13
*408 FILLER_19_137
*409 FILLER_19_149
*410 FILLER_19_161
*411 FILLER_19_167
*412 FILLER_19_169
*413 FILLER_19_181
*414 FILLER_19_193
*415 FILLER_19_205
*416 FILLER_19_217
*417 FILLER_19_223
*418 FILLER_19_225
*419 FILLER_19_23
*420 FILLER_19_237
*421 FILLER_19_249
*422 FILLER_19_261
*423 FILLER_19_273
*424 FILLER_19_279
*425 FILLER_19_281
*426 FILLER_19_293
*427 FILLER_19_3
*428 FILLER_19_30
*429 FILLER_19_42
*430 FILLER_19_54
*431 FILLER_19_57
*432 FILLER_19_69
*433 FILLER_19_81
*434 FILLER_19_93
*435 FILLER_1_105
*436 FILLER_1_111
*437 FILLER_1_113
*438 FILLER_1_125
*439 FILLER_1_137
*440 FILLER_1_149
*441 FILLER_1_161
*442 FILLER_1_167
*443 FILLER_1_169
*444 FILLER_1_181
*445 FILLER_1_19
*446 FILLER_1_193
*447 FILLER_1_205
*448 FILLER_1_217
*449 FILLER_1_223
*450 FILLER_1_225
*451 FILLER_1_237
*452 FILLER_1_249
*453 FILLER_1_261
*454 FILLER_1_273
*455 FILLER_1_279
*456 FILLER_1_281
*457 FILLER_1_293
*458 FILLER_1_31
*459 FILLER_1_43
*460 FILLER_1_55
*461 FILLER_1_57
*462 FILLER_1_69
*463 FILLER_1_81
*464 FILLER_1_93
*465 FILLER_20_109
*466 FILLER_20_11
*467 FILLER_20_121
*468 FILLER_20_133
*469 FILLER_20_139
*470 FILLER_20_141
*471 FILLER_20_153
*472 FILLER_20_165
*473 FILLER_20_177
*474 FILLER_20_189
*475 FILLER_20_195
*476 FILLER_20_197
*477 FILLER_20_209
*478 FILLER_20_221
*479 FILLER_20_233
*480 FILLER_20_24
*481 FILLER_20_245
*482 FILLER_20_251
*483 FILLER_20_253
*484 FILLER_20_265
*485 FILLER_20_277
*486 FILLER_20_289
*487 FILLER_20_297
*488 FILLER_20_3
*489 FILLER_20_39
*490 FILLER_20_51
*491 FILLER_20_63
*492 FILLER_20_75
*493 FILLER_20_83
*494 FILLER_20_85
*495 FILLER_20_97
*496 FILLER_21_105
*497 FILLER_21_111
*498 FILLER_21_113
*499 FILLER_21_125
*500 FILLER_21_137
*501 FILLER_21_149
*502 FILLER_21_16
*503 FILLER_21_161
*504 FILLER_21_167
*505 FILLER_21_169
*506 FILLER_21_181
*507 FILLER_21_193
*508 FILLER_21_205
*509 FILLER_21_217
*510 FILLER_21_223
*511 FILLER_21_225
*512 FILLER_21_237
*513 FILLER_21_249
*514 FILLER_21_26
*515 FILLER_21_261
*516 FILLER_21_273
*517 FILLER_21_279
*518 FILLER_21_281
*519 FILLER_21_293
*520 FILLER_21_3
*521 FILLER_21_38
*522 FILLER_21_50
*523 FILLER_21_57
*524 FILLER_21_69
*525 FILLER_21_81
*526 FILLER_21_93
*527 FILLER_22_109
*528 FILLER_22_121
*529 FILLER_22_133
*530 FILLER_22_139
*531 FILLER_22_141
*532 FILLER_22_153
*533 FILLER_22_165
*534 FILLER_22_177
*535 FILLER_22_189
*536 FILLER_22_195
*537 FILLER_22_197
*538 FILLER_22_209
*539 FILLER_22_221
*540 FILLER_22_233
*541 FILLER_22_24
*542 FILLER_22_245
*543 FILLER_22_251
*544 FILLER_22_253
*545 FILLER_22_265
*546 FILLER_22_277
*547 FILLER_22_289
*548 FILLER_22_29
*549 FILLER_22_297
*550 FILLER_22_3
*551 FILLER_22_33
*552 FILLER_22_41
*553 FILLER_22_53
*554 FILLER_22_65
*555 FILLER_22_77
*556 FILLER_22_83
*557 FILLER_22_85
*558 FILLER_22_97
*559 FILLER_23_105
*560 FILLER_23_111
*561 FILLER_23_113
*562 FILLER_23_125
*563 FILLER_23_137
*564 FILLER_23_149
*565 FILLER_23_15
*566 FILLER_23_161
*567 FILLER_23_167
*568 FILLER_23_169
*569 FILLER_23_181
*570 FILLER_23_193
*571 FILLER_23_205
*572 FILLER_23_217
*573 FILLER_23_223
*574 FILLER_23_225
*575 FILLER_23_237
*576 FILLER_23_249
*577 FILLER_23_25
*578 FILLER_23_261
*579 FILLER_23_273
*580 FILLER_23_279
*581 FILLER_23_281
*582 FILLER_23_293
*583 FILLER_23_3
*584 FILLER_23_37
*585 FILLER_23_49
*586 FILLER_23_55
*587 FILLER_23_57
*588 FILLER_23_69
*589 FILLER_23_81
*590 FILLER_23_93
*591 FILLER_24_109
*592 FILLER_24_121
*593 FILLER_24_133
*594 FILLER_24_139
*595 FILLER_24_14
*596 FILLER_24_141
*597 FILLER_24_153
*598 FILLER_24_165
*599 FILLER_24_177
*600 FILLER_24_189
*601 FILLER_24_195
*602 FILLER_24_197
*603 FILLER_24_209
*604 FILLER_24_21
*605 FILLER_24_221
*606 FILLER_24_233
*607 FILLER_24_245
*608 FILLER_24_251
*609 FILLER_24_253
*610 FILLER_24_265
*611 FILLER_24_27
*612 FILLER_24_277
*613 FILLER_24_289
*614 FILLER_24_297
*615 FILLER_24_3
*616 FILLER_24_35
*617 FILLER_24_47
*618 FILLER_24_59
*619 FILLER_24_7
*620 FILLER_24_71
*621 FILLER_24_83
*622 FILLER_24_85
*623 FILLER_24_97
*624 FILLER_25_105
*625 FILLER_25_111
*626 FILLER_25_113
*627 FILLER_25_125
*628 FILLER_25_137
*629 FILLER_25_14
*630 FILLER_25_149
*631 FILLER_25_161
*632 FILLER_25_167
*633 FILLER_25_169
*634 FILLER_25_181
*635 FILLER_25_193
*636 FILLER_25_205
*637 FILLER_25_21
*638 FILLER_25_217
*639 FILLER_25_223
*640 FILLER_25_225
*641 FILLER_25_237
*642 FILLER_25_249
*643 FILLER_25_261
*644 FILLER_25_273
*645 FILLER_25_279
*646 FILLER_25_281
*647 FILLER_25_293
*648 FILLER_25_3
*649 FILLER_25_33
*650 FILLER_25_45
*651 FILLER_25_53
*652 FILLER_25_57
*653 FILLER_25_69
*654 FILLER_25_81
*655 FILLER_25_93
*656 FILLER_26_109
*657 FILLER_26_121
*658 FILLER_26_13
*659 FILLER_26_133
*660 FILLER_26_139
*661 FILLER_26_141
*662 FILLER_26_153
*663 FILLER_26_165
*664 FILLER_26_177
*665 FILLER_26_189
*666 FILLER_26_195
*667 FILLER_26_197
*668 FILLER_26_20
*669 FILLER_26_209
*670 FILLER_26_221
*671 FILLER_26_233
*672 FILLER_26_245
*673 FILLER_26_251
*674 FILLER_26_253
*675 FILLER_26_265
*676 FILLER_26_277
*677 FILLER_26_289
*678 FILLER_26_297
*679 FILLER_26_3
*680 FILLER_26_32
*681 FILLER_26_44
*682 FILLER_26_56
*683 FILLER_26_68
*684 FILLER_26_80
*685 FILLER_26_85
*686 FILLER_26_97
*687 FILLER_27_105
*688 FILLER_27_111
*689 FILLER_27_113
*690 FILLER_27_125
*691 FILLER_27_137
*692 FILLER_27_14
*693 FILLER_27_149
*694 FILLER_27_161
*695 FILLER_27_167
*696 FILLER_27_169
*697 FILLER_27_181
*698 FILLER_27_19
*699 FILLER_27_193
*700 FILLER_27_205
*701 FILLER_27_217
*702 FILLER_27_223
*703 FILLER_27_225
*704 FILLER_27_237
*705 FILLER_27_249
*706 FILLER_27_26
*707 FILLER_27_261
*708 FILLER_27_273
*709 FILLER_27_279
*710 FILLER_27_281
*711 FILLER_27_293
*712 FILLER_27_33
*713 FILLER_27_45
*714 FILLER_27_53
*715 FILLER_27_57
*716 FILLER_27_6
*717 FILLER_27_69
*718 FILLER_27_81
*719 FILLER_27_93
*720 FILLER_28_109
*721 FILLER_28_121
*722 FILLER_28_133
*723 FILLER_28_139
*724 FILLER_28_141
*725 FILLER_28_153
*726 FILLER_28_165
*727 FILLER_28_177
*728 FILLER_28_189
*729 FILLER_28_195
*730 FILLER_28_197
*731 FILLER_28_209
*732 FILLER_28_221
*733 FILLER_28_23
*734 FILLER_28_233
*735 FILLER_28_245
*736 FILLER_28_251
*737 FILLER_28_253
*738 FILLER_28_265
*739 FILLER_28_27
*740 FILLER_28_277
*741 FILLER_28_289
*742 FILLER_28_297
*743 FILLER_28_36
*744 FILLER_28_48
*745 FILLER_28_6
*746 FILLER_28_60
*747 FILLER_28_72
*748 FILLER_28_85
*749 FILLER_28_97
*750 FILLER_29_105
*751 FILLER_29_111
*752 FILLER_29_113
*753 FILLER_29_125
*754 FILLER_29_137
*755 FILLER_29_149
*756 FILLER_29_161
*757 FILLER_29_167
*758 FILLER_29_169
*759 FILLER_29_181
*760 FILLER_29_193
*761 FILLER_29_205
*762 FILLER_29_217
*763 FILLER_29_223
*764 FILLER_29_225
*765 FILLER_29_237
*766 FILLER_29_249
*767 FILLER_29_261
*768 FILLER_29_27
*769 FILLER_29_273
*770 FILLER_29_279
*771 FILLER_29_281
*772 FILLER_29_293
*773 FILLER_29_3
*774 FILLER_29_39
*775 FILLER_29_51
*776 FILLER_29_55
*777 FILLER_29_57
*778 FILLER_29_69
*779 FILLER_29_81
*780 FILLER_29_93
*781 FILLER_2_109
*782 FILLER_2_121
*783 FILLER_2_133
*784 FILLER_2_139
*785 FILLER_2_141
*786 FILLER_2_15
*787 FILLER_2_153
*788 FILLER_2_165
*789 FILLER_2_177
*790 FILLER_2_189
*791 FILLER_2_195
*792 FILLER_2_197
*793 FILLER_2_209
*794 FILLER_2_221
*795 FILLER_2_233
*796 FILLER_2_245
*797 FILLER_2_251
*798 FILLER_2_253
*799 FILLER_2_265
*800 FILLER_2_27
*801 FILLER_2_277
*802 FILLER_2_289
*803 FILLER_2_29
*804 FILLER_2_297
*805 FILLER_2_3
*806 FILLER_2_41
*807 FILLER_2_53
*808 FILLER_2_65
*809 FILLER_2_77
*810 FILLER_2_83
*811 FILLER_2_85
*812 FILLER_2_97
*813 FILLER_30_109
*814 FILLER_30_121
*815 FILLER_30_133
*816 FILLER_30_139
*817 FILLER_30_141
*818 FILLER_30_15
*819 FILLER_30_153
*820 FILLER_30_165
*821 FILLER_30_177
*822 FILLER_30_189
*823 FILLER_30_195
*824 FILLER_30_197
*825 FILLER_30_209
*826 FILLER_30_221
*827 FILLER_30_233
*828 FILLER_30_245
*829 FILLER_30_251
*830 FILLER_30_253
*831 FILLER_30_265
*832 FILLER_30_27
*833 FILLER_30_277
*834 FILLER_30_289
*835 FILLER_30_29
*836 FILLER_30_297
*837 FILLER_30_3
*838 FILLER_30_41
*839 FILLER_30_53
*840 FILLER_30_65
*841 FILLER_30_77
*842 FILLER_30_8
*843 FILLER_30_83
*844 FILLER_30_85
*845 FILLER_30_97
*846 FILLER_31_105
*847 FILLER_31_111
*848 FILLER_31_113
*849 FILLER_31_125
*850 FILLER_31_137
*851 FILLER_31_149
*852 FILLER_31_161
*853 FILLER_31_167
*854 FILLER_31_169
*855 FILLER_31_181
*856 FILLER_31_193
*857 FILLER_31_205
*858 FILLER_31_217
*859 FILLER_31_223
*860 FILLER_31_225
*861 FILLER_31_237
*862 FILLER_31_249
*863 FILLER_31_261
*864 FILLER_31_27
*865 FILLER_31_273
*866 FILLER_31_279
*867 FILLER_31_281
*868 FILLER_31_293
*869 FILLER_31_3
*870 FILLER_31_39
*871 FILLER_31_51
*872 FILLER_31_55
*873 FILLER_31_57
*874 FILLER_31_69
*875 FILLER_31_81
*876 FILLER_31_93
*877 FILLER_32_109
*878 FILLER_32_121
*879 FILLER_32_133
*880 FILLER_32_139
*881 FILLER_32_141
*882 FILLER_32_153
*883 FILLER_32_165
*884 FILLER_32_177
*885 FILLER_32_189
*886 FILLER_32_195
*887 FILLER_32_197
*888 FILLER_32_20
*889 FILLER_32_209
*890 FILLER_32_221
*891 FILLER_32_233
*892 FILLER_32_245
*893 FILLER_32_251
*894 FILLER_32_253
*895 FILLER_32_265
*896 FILLER_32_277
*897 FILLER_32_289
*898 FILLER_32_29
*899 FILLER_32_297
*900 FILLER_32_3
*901 FILLER_32_41
*902 FILLER_32_53
*903 FILLER_32_65
*904 FILLER_32_77
*905 FILLER_32_8
*906 FILLER_32_83
*907 FILLER_32_85
*908 FILLER_32_97
*909 FILLER_33_105
*910 FILLER_33_111
*911 FILLER_33_113
*912 FILLER_33_125
*913 FILLER_33_137
*914 FILLER_33_149
*915 FILLER_33_161
*916 FILLER_33_167
*917 FILLER_33_169
*918 FILLER_33_181
*919 FILLER_33_193
*920 FILLER_33_20
*921 FILLER_33_205
*922 FILLER_33_217
*923 FILLER_33_223
*924 FILLER_33_225
*925 FILLER_33_237
*926 FILLER_33_249
*927 FILLER_33_261
*928 FILLER_33_273
*929 FILLER_33_279
*930 FILLER_33_281
*931 FILLER_33_293
*932 FILLER_33_3
*933 FILLER_33_32
*934 FILLER_33_44
*935 FILLER_33_57
*936 FILLER_33_69
*937 FILLER_33_8
*938 FILLER_33_81
*939 FILLER_33_93
*940 FILLER_34_109
*941 FILLER_34_121
*942 FILLER_34_133
*943 FILLER_34_139
*944 FILLER_34_141
*945 FILLER_34_153
*946 FILLER_34_165
*947 FILLER_34_177
*948 FILLER_34_189
*949 FILLER_34_19
*950 FILLER_34_195
*951 FILLER_34_197
*952 FILLER_34_209
*953 FILLER_34_221
*954 FILLER_34_233
*955 FILLER_34_245
*956 FILLER_34_251
*957 FILLER_34_253
*958 FILLER_34_265
*959 FILLER_34_27
*960 FILLER_34_277
*961 FILLER_34_289
*962 FILLER_34_29
*963 FILLER_34_297
*964 FILLER_34_3
*965 FILLER_34_41
*966 FILLER_34_53
*967 FILLER_34_65
*968 FILLER_34_7
*969 FILLER_34_77
*970 FILLER_34_83
*971 FILLER_34_85
*972 FILLER_34_97
*973 FILLER_35_105
*974 FILLER_35_111
*975 FILLER_35_113
*976 FILLER_35_125
*977 FILLER_35_137
*978 FILLER_35_14
*979 FILLER_35_149
*980 FILLER_35_161
*981 FILLER_35_167
*982 FILLER_35_169
*983 FILLER_35_181
*984 FILLER_35_193
*985 FILLER_35_205
*986 FILLER_35_217
*987 FILLER_35_223
*988 FILLER_35_225
*989 FILLER_35_237
*990 FILLER_35_249
*991 FILLER_35_261
*992 FILLER_35_273
*993 FILLER_35_279
*994 FILLER_35_281
*995 FILLER_35_293
*996 FILLER_35_36
*997 FILLER_35_48
*998 FILLER_35_57
*999 FILLER_35_6
*1000 FILLER_35_69
*1001 FILLER_35_81
*1002 FILLER_35_93
*1003 FILLER_36_109
*1004 FILLER_36_121
*1005 FILLER_36_133
*1006 FILLER_36_139
*1007 FILLER_36_141
*1008 FILLER_36_153
*1009 FILLER_36_165
*1010 FILLER_36_177
*1011 FILLER_36_189
*1012 FILLER_36_195
*1013 FILLER_36_197
*1014 FILLER_36_209
*1015 FILLER_36_221
*1016 FILLER_36_233
*1017 FILLER_36_24
*1018 FILLER_36_245
*1019 FILLER_36_251
*1020 FILLER_36_253
*1021 FILLER_36_265
*1022 FILLER_36_277
*1023 FILLER_36_289
*1024 FILLER_36_29
*1025 FILLER_36_297
*1026 FILLER_36_3
*1027 FILLER_36_41
*1028 FILLER_36_53
*1029 FILLER_36_65
*1030 FILLER_36_77
*1031 FILLER_36_83
*1032 FILLER_36_85
*1033 FILLER_36_97
*1034 FILLER_37_105
*1035 FILLER_37_111
*1036 FILLER_37_113
*1037 FILLER_37_125
*1038 FILLER_37_137
*1039 FILLER_37_149
*1040 FILLER_37_15
*1041 FILLER_37_161
*1042 FILLER_37_167
*1043 FILLER_37_169
*1044 FILLER_37_181
*1045 FILLER_37_193
*1046 FILLER_37_205
*1047 FILLER_37_217
*1048 FILLER_37_223
*1049 FILLER_37_225
*1050 FILLER_37_237
*1051 FILLER_37_249
*1052 FILLER_37_261
*1053 FILLER_37_27
*1054 FILLER_37_273
*1055 FILLER_37_279
*1056 FILLER_37_281
*1057 FILLER_37_293
*1058 FILLER_37_3
*1059 FILLER_37_39
*1060 FILLER_37_51
*1061 FILLER_37_55
*1062 FILLER_37_57
*1063 FILLER_37_69
*1064 FILLER_37_81
*1065 FILLER_37_93
*1066 FILLER_38_109
*1067 FILLER_38_121
*1068 FILLER_38_133
*1069 FILLER_38_139
*1070 FILLER_38_141
*1071 FILLER_38_153
*1072 FILLER_38_165
*1073 FILLER_38_177
*1074 FILLER_38_18
*1075 FILLER_38_189
*1076 FILLER_38_195
*1077 FILLER_38_197
*1078 FILLER_38_209
*1079 FILLER_38_221
*1080 FILLER_38_233
*1081 FILLER_38_245
*1082 FILLER_38_251
*1083 FILLER_38_253
*1084 FILLER_38_26
*1085 FILLER_38_265
*1086 FILLER_38_277
*1087 FILLER_38_289
*1088 FILLER_38_29
*1089 FILLER_38_297
*1090 FILLER_38_41
*1091 FILLER_38_53
*1092 FILLER_38_6
*1093 FILLER_38_65
*1094 FILLER_38_77
*1095 FILLER_38_83
*1096 FILLER_38_85
*1097 FILLER_38_97
*1098 FILLER_39_105
*1099 FILLER_39_111
*1100 FILLER_39_113
*1101 FILLER_39_12
*1102 FILLER_39_125
*1103 FILLER_39_137
*1104 FILLER_39_149
*1105 FILLER_39_161
*1106 FILLER_39_167
*1107 FILLER_39_169
*1108 FILLER_39_181
*1109 FILLER_39_193
*1110 FILLER_39_205
*1111 FILLER_39_217
*1112 FILLER_39_223
*1113 FILLER_39_225
*1114 FILLER_39_237
*1115 FILLER_39_24
*1116 FILLER_39_249
*1117 FILLER_39_261
*1118 FILLER_39_273
*1119 FILLER_39_279
*1120 FILLER_39_281
*1121 FILLER_39_293
*1122 FILLER_39_36
*1123 FILLER_39_48
*1124 FILLER_39_57
*1125 FILLER_39_69
*1126 FILLER_39_81
*1127 FILLER_39_93
*1128 FILLER_3_105
*1129 FILLER_3_111
*1130 FILLER_3_113
*1131 FILLER_3_125
*1132 FILLER_3_137
*1133 FILLER_3_149
*1134 FILLER_3_15
*1135 FILLER_3_161
*1136 FILLER_3_167
*1137 FILLER_3_169
*1138 FILLER_3_181
*1139 FILLER_3_193
*1140 FILLER_3_205
*1141 FILLER_3_217
*1142 FILLER_3_223
*1143 FILLER_3_225
*1144 FILLER_3_237
*1145 FILLER_3_249
*1146 FILLER_3_261
*1147 FILLER_3_27
*1148 FILLER_3_273
*1149 FILLER_3_279
*1150 FILLER_3_281
*1151 FILLER_3_293
*1152 FILLER_3_3
*1153 FILLER_3_39
*1154 FILLER_3_51
*1155 FILLER_3_55
*1156 FILLER_3_57
*1157 FILLER_3_69
*1158 FILLER_3_81
*1159 FILLER_3_93
*1160 FILLER_40_109
*1161 FILLER_40_121
*1162 FILLER_40_13
*1163 FILLER_40_133
*1164 FILLER_40_139
*1165 FILLER_40_141
*1166 FILLER_40_153
*1167 FILLER_40_165
*1168 FILLER_40_177
*1169 FILLER_40_189
*1170 FILLER_40_195
*1171 FILLER_40_197
*1172 FILLER_40_209
*1173 FILLER_40_221
*1174 FILLER_40_233
*1175 FILLER_40_245
*1176 FILLER_40_25
*1177 FILLER_40_251
*1178 FILLER_40_253
*1179 FILLER_40_265
*1180 FILLER_40_277
*1181 FILLER_40_289
*1182 FILLER_40_29
*1183 FILLER_40_297
*1184 FILLER_40_3
*1185 FILLER_40_41
*1186 FILLER_40_53
*1187 FILLER_40_65
*1188 FILLER_40_77
*1189 FILLER_40_83
*1190 FILLER_40_85
*1191 FILLER_40_97
*1192 FILLER_41_10
*1193 FILLER_41_105
*1194 FILLER_41_111
*1195 FILLER_41_113
*1196 FILLER_41_125
*1197 FILLER_41_137
*1198 FILLER_41_149
*1199 FILLER_41_161
*1200 FILLER_41_167
*1201 FILLER_41_169
*1202 FILLER_41_181
*1203 FILLER_41_193
*1204 FILLER_41_205
*1205 FILLER_41_217
*1206 FILLER_41_223
*1207 FILLER_41_225
*1208 FILLER_41_237
*1209 FILLER_41_249
*1210 FILLER_41_261
*1211 FILLER_41_273
*1212 FILLER_41_279
*1213 FILLER_41_281
*1214 FILLER_41_293
*1215 FILLER_41_3
*1216 FILLER_41_30
*1217 FILLER_41_42
*1218 FILLER_41_54
*1219 FILLER_41_57
*1220 FILLER_41_69
*1221 FILLER_41_81
*1222 FILLER_41_93
*1223 FILLER_42_109
*1224 FILLER_42_121
*1225 FILLER_42_133
*1226 FILLER_42_139
*1227 FILLER_42_141
*1228 FILLER_42_153
*1229 FILLER_42_16
*1230 FILLER_42_165
*1231 FILLER_42_177
*1232 FILLER_42_189
*1233 FILLER_42_195
*1234 FILLER_42_197
*1235 FILLER_42_209
*1236 FILLER_42_221
*1237 FILLER_42_233
*1238 FILLER_42_245
*1239 FILLER_42_251
*1240 FILLER_42_253
*1241 FILLER_42_265
*1242 FILLER_42_277
*1243 FILLER_42_289
*1244 FILLER_42_29
*1245 FILLER_42_297
*1246 FILLER_42_33
*1247 FILLER_42_50
*1248 FILLER_42_62
*1249 FILLER_42_74
*1250 FILLER_42_82
*1251 FILLER_42_85
*1252 FILLER_42_97
*1253 FILLER_43_105
*1254 FILLER_43_111
*1255 FILLER_43_113
*1256 FILLER_43_125
*1257 FILLER_43_13
*1258 FILLER_43_137
*1259 FILLER_43_149
*1260 FILLER_43_161
*1261 FILLER_43_167
*1262 FILLER_43_169
*1263 FILLER_43_181
*1264 FILLER_43_193
*1265 FILLER_43_205
*1266 FILLER_43_217
*1267 FILLER_43_223
*1268 FILLER_43_225
*1269 FILLER_43_237
*1270 FILLER_43_249
*1271 FILLER_43_261
*1272 FILLER_43_273
*1273 FILLER_43_279
*1274 FILLER_43_281
*1275 FILLER_43_293
*1276 FILLER_43_3
*1277 FILLER_43_30
*1278 FILLER_43_50
*1279 FILLER_43_57
*1280 FILLER_43_69
*1281 FILLER_43_81
*1282 FILLER_43_9
*1283 FILLER_43_93
*1284 FILLER_44_109
*1285 FILLER_44_121
*1286 FILLER_44_133
*1287 FILLER_44_139
*1288 FILLER_44_141
*1289 FILLER_44_153
*1290 FILLER_44_165
*1291 FILLER_44_177
*1292 FILLER_44_189
*1293 FILLER_44_195
*1294 FILLER_44_197
*1295 FILLER_44_209
*1296 FILLER_44_221
*1297 FILLER_44_233
*1298 FILLER_44_24
*1299 FILLER_44_245
*1300 FILLER_44_251
*1301 FILLER_44_253
*1302 FILLER_44_265
*1303 FILLER_44_277
*1304 FILLER_44_289
*1305 FILLER_44_29
*1306 FILLER_44_297
*1307 FILLER_44_3
*1308 FILLER_44_33
*1309 FILLER_44_50
*1310 FILLER_44_62
*1311 FILLER_44_74
*1312 FILLER_44_82
*1313 FILLER_44_85
*1314 FILLER_44_97
*1315 FILLER_45_105
*1316 FILLER_45_111
*1317 FILLER_45_113
*1318 FILLER_45_125
*1319 FILLER_45_137
*1320 FILLER_45_149
*1321 FILLER_45_161
*1322 FILLER_45_167
*1323 FILLER_45_169
*1324 FILLER_45_181
*1325 FILLER_45_193
*1326 FILLER_45_20
*1327 FILLER_45_205
*1328 FILLER_45_217
*1329 FILLER_45_223
*1330 FILLER_45_225
*1331 FILLER_45_237
*1332 FILLER_45_249
*1333 FILLER_45_261
*1334 FILLER_45_273
*1335 FILLER_45_279
*1336 FILLER_45_281
*1337 FILLER_45_293
*1338 FILLER_45_3
*1339 FILLER_45_44
*1340 FILLER_45_57
*1341 FILLER_45_69
*1342 FILLER_45_81
*1343 FILLER_45_93
*1344 FILLER_46_109
*1345 FILLER_46_121
*1346 FILLER_46_133
*1347 FILLER_46_139
*1348 FILLER_46_141
*1349 FILLER_46_153
*1350 FILLER_46_165
*1351 FILLER_46_177
*1352 FILLER_46_189
*1353 FILLER_46_195
*1354 FILLER_46_197
*1355 FILLER_46_209
*1356 FILLER_46_221
*1357 FILLER_46_233
*1358 FILLER_46_24
*1359 FILLER_46_245
*1360 FILLER_46_251
*1361 FILLER_46_253
*1362 FILLER_46_265
*1363 FILLER_46_277
*1364 FILLER_46_289
*1365 FILLER_46_297
*1366 FILLER_46_3
*1367 FILLER_46_32
*1368 FILLER_46_44
*1369 FILLER_46_56
*1370 FILLER_46_68
*1371 FILLER_46_80
*1372 FILLER_46_85
*1373 FILLER_46_97
*1374 FILLER_47_105
*1375 FILLER_47_111
*1376 FILLER_47_113
*1377 FILLER_47_125
*1378 FILLER_47_137
*1379 FILLER_47_149
*1380 FILLER_47_15
*1381 FILLER_47_161
*1382 FILLER_47_167
*1383 FILLER_47_169
*1384 FILLER_47_181
*1385 FILLER_47_193
*1386 FILLER_47_205
*1387 FILLER_47_217
*1388 FILLER_47_223
*1389 FILLER_47_225
*1390 FILLER_47_237
*1391 FILLER_47_249
*1392 FILLER_47_261
*1393 FILLER_47_273
*1394 FILLER_47_279
*1395 FILLER_47_281
*1396 FILLER_47_293
*1397 FILLER_47_36
*1398 FILLER_47_48
*1399 FILLER_47_57
*1400 FILLER_47_69
*1401 FILLER_47_7
*1402 FILLER_47_81
*1403 FILLER_47_93
*1404 FILLER_48_109
*1405 FILLER_48_121
*1406 FILLER_48_133
*1407 FILLER_48_139
*1408 FILLER_48_141
*1409 FILLER_48_153
*1410 FILLER_48_165
*1411 FILLER_48_177
*1412 FILLER_48_189
*1413 FILLER_48_195
*1414 FILLER_48_197
*1415 FILLER_48_209
*1416 FILLER_48_221
*1417 FILLER_48_233
*1418 FILLER_48_24
*1419 FILLER_48_245
*1420 FILLER_48_251
*1421 FILLER_48_253
*1422 FILLER_48_265
*1423 FILLER_48_277
*1424 FILLER_48_289
*1425 FILLER_48_29
*1426 FILLER_48_297
*1427 FILLER_48_3
*1428 FILLER_48_33
*1429 FILLER_48_50
*1430 FILLER_48_62
*1431 FILLER_48_7
*1432 FILLER_48_74
*1433 FILLER_48_82
*1434 FILLER_48_85
*1435 FILLER_48_97
*1436 FILLER_49_105
*1437 FILLER_49_111
*1438 FILLER_49_113
*1439 FILLER_49_125
*1440 FILLER_49_137
*1441 FILLER_49_149
*1442 FILLER_49_161
*1443 FILLER_49_167
*1444 FILLER_49_169
*1445 FILLER_49_181
*1446 FILLER_49_193
*1447 FILLER_49_205
*1448 FILLER_49_217
*1449 FILLER_49_223
*1450 FILLER_49_225
*1451 FILLER_49_237
*1452 FILLER_49_249
*1453 FILLER_49_261
*1454 FILLER_49_27
*1455 FILLER_49_273
*1456 FILLER_49_279
*1457 FILLER_49_281
*1458 FILLER_49_293
*1459 FILLER_49_51
*1460 FILLER_49_55
*1461 FILLER_49_57
*1462 FILLER_49_69
*1463 FILLER_49_7
*1464 FILLER_49_81
*1465 FILLER_49_93
*1466 FILLER_4_109
*1467 FILLER_4_121
*1468 FILLER_4_133
*1469 FILLER_4_139
*1470 FILLER_4_141
*1471 FILLER_4_15
*1472 FILLER_4_153
*1473 FILLER_4_165
*1474 FILLER_4_177
*1475 FILLER_4_189
*1476 FILLER_4_195
*1477 FILLER_4_197
*1478 FILLER_4_209
*1479 FILLER_4_221
*1480 FILLER_4_233
*1481 FILLER_4_245
*1482 FILLER_4_251
*1483 FILLER_4_253
*1484 FILLER_4_265
*1485 FILLER_4_27
*1486 FILLER_4_277
*1487 FILLER_4_289
*1488 FILLER_4_29
*1489 FILLER_4_297
*1490 FILLER_4_3
*1491 FILLER_4_41
*1492 FILLER_4_53
*1493 FILLER_4_65
*1494 FILLER_4_77
*1495 FILLER_4_83
*1496 FILLER_4_85
*1497 FILLER_4_97
*1498 FILLER_50_109
*1499 FILLER_50_121
*1500 FILLER_50_133
*1501 FILLER_50_139
*1502 FILLER_50_141
*1503 FILLER_50_153
*1504 FILLER_50_165
*1505 FILLER_50_177
*1506 FILLER_50_189
*1507 FILLER_50_195
*1508 FILLER_50_197
*1509 FILLER_50_209
*1510 FILLER_50_221
*1511 FILLER_50_233
*1512 FILLER_50_24
*1513 FILLER_50_245
*1514 FILLER_50_251
*1515 FILLER_50_253
*1516 FILLER_50_265
*1517 FILLER_50_277
*1518 FILLER_50_289
*1519 FILLER_50_29
*1520 FILLER_50_297
*1521 FILLER_50_3
*1522 FILLER_50_48
*1523 FILLER_50_60
*1524 FILLER_50_7
*1525 FILLER_50_72
*1526 FILLER_50_85
*1527 FILLER_50_97
*1528 FILLER_51_105
*1529 FILLER_51_111
*1530 FILLER_51_113
*1531 FILLER_51_125
*1532 FILLER_51_137
*1533 FILLER_51_149
*1534 FILLER_51_161
*1535 FILLER_51_167
*1536 FILLER_51_169
*1537 FILLER_51_181
*1538 FILLER_51_193
*1539 FILLER_51_205
*1540 FILLER_51_217
*1541 FILLER_51_223
*1542 FILLER_51_225
*1543 FILLER_51_237
*1544 FILLER_51_24
*1545 FILLER_51_249
*1546 FILLER_51_261
*1547 FILLER_51_273
*1548 FILLER_51_279
*1549 FILLER_51_281
*1550 FILLER_51_293
*1551 FILLER_51_3
*1552 FILLER_51_36
*1553 FILLER_51_48
*1554 FILLER_51_57
*1555 FILLER_51_69
*1556 FILLER_51_7
*1557 FILLER_51_81
*1558 FILLER_51_93
*1559 FILLER_52_109
*1560 FILLER_52_121
*1561 FILLER_52_133
*1562 FILLER_52_139
*1563 FILLER_52_141
*1564 FILLER_52_15
*1565 FILLER_52_153
*1566 FILLER_52_165
*1567 FILLER_52_177
*1568 FILLER_52_189
*1569 FILLER_52_195
*1570 FILLER_52_197
*1571 FILLER_52_209
*1572 FILLER_52_221
*1573 FILLER_52_233
*1574 FILLER_52_245
*1575 FILLER_52_251
*1576 FILLER_52_253
*1577 FILLER_52_265
*1578 FILLER_52_27
*1579 FILLER_52_277
*1580 FILLER_52_289
*1581 FILLER_52_29
*1582 FILLER_52_297
*1583 FILLER_52_3
*1584 FILLER_52_41
*1585 FILLER_52_53
*1586 FILLER_52_65
*1587 FILLER_52_77
*1588 FILLER_52_83
*1589 FILLER_52_85
*1590 FILLER_52_97