*SPEF "ieee 1481-1999"
*DESIGN "user_module_349833797657690706"
*DATE "11:11:11 Fri 11 11, 1111"
*VENDOR "OpenRCX"
*PROGRAM "Parallel Extraction"
*VERSION "1.0"
*DESIGN_FLOW "NAME_SCOPE LOCAL" "PIN_CAP NONE"
*DIVIDER /
*DELIMITER :
*BUS_DELIMITER []
*T_UNIT 1 NS
*C_UNIT 1 PF
*R_UNIT 1 OHM
*L_UNIT 1 HENRY

*NAME_MAP
*1 io_in[0]
*2 io_in[1]
*3 io_in[2]
*4 io_in[3]
*5 io_in[4]
*6 io_in[5]
*7 io_in[6]
*8 io_in[7]
*9 io_out[0]
*10 io_out[1]
*11 net18
*12 net19
*13 io_out[4]
*14 io_out[5]
*15 net20
*16 net21
*19 _000_
*20 _001_
*21 _002_
*22 _003_
*23 _004_
*24 _005_
*25 _006_
*26 _007_
*27 _008_
*28 _009_
*29 _010_
*30 _011_
*31 _012_
*32 _013_
*33 _014_
*34 _015_
*35 _016_
*36 _017_
*37 _018_
*38 _019_
*39 _020_
*40 _021_
*41 _022_
*42 _023_
*43 _024_
*44 _025_
*45 _026_
*46 _027_
*47 _028_
*48 _029_
*49 _030_
*50 _031_
*51 _032_
*52 _033_
*53 _034_
*54 _035_
*55 _036_
*56 _037_
*57 _038_
*58 _039_
*59 _040_
*60 _041_
*61 _042_
*62 _043_
*63 _044_
*64 _045_
*65 _046_
*66 _047_
*67 _048_
*68 _049_
*69 _050_
*70 _051_
*71 _052_
*72 _053_
*73 _054_
*74 clknet_0__038_
*75 clknet_0__040_
*76 clknet_0__054_
*77 clknet_0_io_in[0]
*78 clknet_1_0__leaf__038_
*79 clknet_1_0__leaf__040_
*80 clknet_1_0__leaf__054_
*81 clknet_1_0__leaf_io_in[0]
*82 clknet_1_1__leaf__038_
*83 clknet_1_1__leaf__040_
*84 clknet_1_1__leaf__054_
*85 clknet_1_1__leaf_io_in[0]
*86 flipflop10\.d
*87 flipflop10\.q
*88 flipflop11\.d
*89 flipflop11\.q
*90 flipflop12\.d
*91 flipflop12\.q
*92 flipflop13\.d
*93 flipflop13\.q
*94 flipflop14\.d
*95 flipflop14\.q
*96 flipflop15\.d
*97 flipflop15\.q
*98 flipflop16\.d
*99 flipflop16\.q
*100 flipflop17\.d
*101 flipflop17\.q
*102 flipflop18\.d
*103 flipflop18\.q
*104 flipflop19\.d
*105 flipflop19\.q
*106 flipflop2\.d
*107 flipflop2\.q
*108 flipflop20\.d
*109 flipflop20\.q
*110 flipflop21\.d
*111 flipflop21\.q
*112 flipflop22\.d
*113 flipflop22\.q
*114 flipflop23\.d
*115 flipflop23\.q
*116 flipflop24\.d
*117 flipflop24\.q
*118 flipflop25\.d
*119 flipflop25\.q
*120 flipflop26\.d
*121 flipflop26\.q
*122 flipflop27\.d
*123 flipflop27\.q
*124 flipflop28\.d
*125 flipflop28\.q
*126 flipflop29\.d
*127 flipflop29\.q
*128 flipflop3\.d
*129 flipflop3\.q
*130 flipflop30\.d
*131 flipflop30\.q
*132 flipflop31\.d
*133 flipflop31\.q
*134 flipflop32\.d
*135 flipflop32\.q
*136 flipflop33\.d
*137 flipflop33\.q
*138 flipflop34\.d
*139 flipflop34\.q
*140 flipflop35\.d
*141 flipflop35\.q
*142 flipflop4\.d
*143 flipflop4\.q
*144 flipflop5\.d
*145 flipflop5\.q
*146 flipflop6\.d
*147 flipflop6\.q
*148 flipflop7\.d
*149 flipflop7\.q
*150 flipflop8\.d
*151 flipflop8\.q
*152 flipflop9\.d
*153 flipflop9\.q
*154 net1
*155 net10
*156 net11
*157 net12
*158 net13
*159 net14
*160 net15
*161 net16
*162 net17
*163 net2
*164 net3
*165 net4
*166 net5
*167 net6
*168 net7
*169 net8
*170 net9
*171 FILLER_0_10
*172 FILLER_0_109
*173 FILLER_0_113
*174 FILLER_0_125
*175 FILLER_0_137
*176 FILLER_0_141
*177 FILLER_0_153
*178 FILLER_0_165
*179 FILLER_0_169
*180 FILLER_0_181
*181 FILLER_0_193
*182 FILLER_0_197
*183 FILLER_0_209
*184 FILLER_0_22
*185 FILLER_0_221
*186 FILLER_0_225
*187 FILLER_0_237
*188 FILLER_0_249
*189 FILLER_0_253
*190 FILLER_0_265
*191 FILLER_0_277
*192 FILLER_0_281
*193 FILLER_0_29
*194 FILLER_0_293
*195 FILLER_0_3
*196 FILLER_0_41
*197 FILLER_0_53
*198 FILLER_0_57
*199 FILLER_0_69
*200 FILLER_0_81
*201 FILLER_0_85
*202 FILLER_0_97
*203 FILLER_10_100
*204 FILLER_10_112
*205 FILLER_10_124
*206 FILLER_10_136
*207 FILLER_10_141
*208 FILLER_10_153
*209 FILLER_10_165
*210 FILLER_10_177
*211 FILLER_10_189
*212 FILLER_10_195
*213 FILLER_10_197
*214 FILLER_10_209
*215 FILLER_10_221
*216 FILLER_10_233
*217 FILLER_10_24
*218 FILLER_10_245
*219 FILLER_10_251
*220 FILLER_10_253
*221 FILLER_10_265
*222 FILLER_10_277
*223 FILLER_10_289
*224 FILLER_10_297
*225 FILLER_10_3
*226 FILLER_10_36
*227 FILLER_10_44
*228 FILLER_10_66
*229 FILLER_10_7
*230 FILLER_10_73
*231 FILLER_10_80
*232 FILLER_10_88
*233 FILLER_11_104
*234 FILLER_11_113
*235 FILLER_11_12
*236 FILLER_11_125
*237 FILLER_11_137
*238 FILLER_11_149
*239 FILLER_11_161
*240 FILLER_11_167
*241 FILLER_11_169
*242 FILLER_11_181
*243 FILLER_11_193
*244 FILLER_11_205
*245 FILLER_11_217
*246 FILLER_11_223
*247 FILLER_11_225
*248 FILLER_11_237
*249 FILLER_11_249
*250 FILLER_11_261
*251 FILLER_11_273
*252 FILLER_11_279
*253 FILLER_11_281
*254 FILLER_11_293
*255 FILLER_11_36
*256 FILLER_11_46
*257 FILLER_11_54
*258 FILLER_11_73
*259 FILLER_11_80
*260 FILLER_11_92
*261 FILLER_12_109
*262 FILLER_12_121
*263 FILLER_12_133
*264 FILLER_12_139
*265 FILLER_12_141
*266 FILLER_12_153
*267 FILLER_12_165
*268 FILLER_12_177
*269 FILLER_12_189
*270 FILLER_12_19
*271 FILLER_12_195
*272 FILLER_12_197
*273 FILLER_12_209
*274 FILLER_12_221
*275 FILLER_12_233
*276 FILLER_12_245
*277 FILLER_12_251
*278 FILLER_12_253
*279 FILLER_12_265
*280 FILLER_12_27
*281 FILLER_12_277
*282 FILLER_12_289
*283 FILLER_12_297
*284 FILLER_12_35
*285 FILLER_12_43
*286 FILLER_12_65
*287 FILLER_12_75
*288 FILLER_12_83
*289 FILLER_12_85
*290 FILLER_12_97
*291 FILLER_13_107
*292 FILLER_13_111
*293 FILLER_13_113
*294 FILLER_13_12
*295 FILLER_13_125
*296 FILLER_13_137
*297 FILLER_13_149
*298 FILLER_13_161
*299 FILLER_13_167
*300 FILLER_13_169
*301 FILLER_13_181
*302 FILLER_13_193
*303 FILLER_13_205
*304 FILLER_13_217
*305 FILLER_13_223
*306 FILLER_13_225
*307 FILLER_13_237
*308 FILLER_13_249
*309 FILLER_13_261
*310 FILLER_13_273
*311 FILLER_13_279
*312 FILLER_13_281
*313 FILLER_13_293
*314 FILLER_13_3
*315 FILLER_13_36
*316 FILLER_13_46
*317 FILLER_13_54
*318 FILLER_13_63
*319 FILLER_13_71
*320 FILLER_13_76
*321 FILLER_13_83
*322 FILLER_13_95
*323 FILLER_14_109
*324 FILLER_14_121
*325 FILLER_14_133
*326 FILLER_14_139
*327 FILLER_14_141
*328 FILLER_14_153
*329 FILLER_14_165
*330 FILLER_14_177
*331 FILLER_14_189
*332 FILLER_14_195
*333 FILLER_14_197
*334 FILLER_14_209
*335 FILLER_14_221
*336 FILLER_14_23
*337 FILLER_14_233
*338 FILLER_14_245
*339 FILLER_14_251
*340 FILLER_14_253
*341 FILLER_14_265
*342 FILLER_14_27
*343 FILLER_14_277
*344 FILLER_14_289
*345 FILLER_14_297
*346 FILLER_14_39
*347 FILLER_14_49
*348 FILLER_14_56
*349 FILLER_14_63
*350 FILLER_14_70
*351 FILLER_14_77
*352 FILLER_14_83
*353 FILLER_14_85
*354 FILLER_14_9
*355 FILLER_14_97
*356 FILLER_15_109
*357 FILLER_15_113
*358 FILLER_15_125
*359 FILLER_15_137
*360 FILLER_15_149
*361 FILLER_15_161
*362 FILLER_15_167
*363 FILLER_15_169
*364 FILLER_15_181
*365 FILLER_15_193
*366 FILLER_15_205
*367 FILLER_15_21
*368 FILLER_15_217
*369 FILLER_15_223
*370 FILLER_15_225
*371 FILLER_15_237
*372 FILLER_15_249
*373 FILLER_15_261
*374 FILLER_15_273
*375 FILLER_15_279
*376 FILLER_15_281
*377 FILLER_15_293
*378 FILLER_15_41
*379 FILLER_15_49
*380 FILLER_15_55
*381 FILLER_15_7
*382 FILLER_15_73
*383 FILLER_15_85
*384 FILLER_15_97
*385 FILLER_16_109
*386 FILLER_16_121
*387 FILLER_16_133
*388 FILLER_16_139
*389 FILLER_16_141
*390 FILLER_16_153
*391 FILLER_16_165
*392 FILLER_16_177
*393 FILLER_16_189
*394 FILLER_16_195
*395 FILLER_16_197
*396 FILLER_16_209
*397 FILLER_16_221
*398 FILLER_16_233
*399 FILLER_16_24
*400 FILLER_16_245
*401 FILLER_16_251
*402 FILLER_16_253
*403 FILLER_16_265
*404 FILLER_16_277
*405 FILLER_16_289
*406 FILLER_16_297
*407 FILLER_16_3
*408 FILLER_16_35
*409 FILLER_16_55
*410 FILLER_16_62
*411 FILLER_16_7
*412 FILLER_16_74
*413 FILLER_16_82
*414 FILLER_16_85
*415 FILLER_16_97
*416 FILLER_17_105
*417 FILLER_17_111
*418 FILLER_17_113
*419 FILLER_17_125
*420 FILLER_17_137
*421 FILLER_17_149
*422 FILLER_17_161
*423 FILLER_17_167
*424 FILLER_17_169
*425 FILLER_17_181
*426 FILLER_17_193
*427 FILLER_17_205
*428 FILLER_17_217
*429 FILLER_17_223
*430 FILLER_17_225
*431 FILLER_17_237
*432 FILLER_17_249
*433 FILLER_17_261
*434 FILLER_17_273
*435 FILLER_17_279
*436 FILLER_17_28
*437 FILLER_17_281
*438 FILLER_17_293
*439 FILLER_17_3
*440 FILLER_17_52
*441 FILLER_17_57
*442 FILLER_17_69
*443 FILLER_17_7
*444 FILLER_17_81
*445 FILLER_17_93
*446 FILLER_18_109
*447 FILLER_18_121
*448 FILLER_18_133
*449 FILLER_18_139
*450 FILLER_18_141
*451 FILLER_18_153
*452 FILLER_18_165
*453 FILLER_18_177
*454 FILLER_18_189
*455 FILLER_18_19
*456 FILLER_18_195
*457 FILLER_18_197
*458 FILLER_18_209
*459 FILLER_18_221
*460 FILLER_18_233
*461 FILLER_18_245
*462 FILLER_18_251
*463 FILLER_18_253
*464 FILLER_18_265
*465 FILLER_18_27
*466 FILLER_18_277
*467 FILLER_18_289
*468 FILLER_18_29
*469 FILLER_18_297
*470 FILLER_18_38
*471 FILLER_18_48
*472 FILLER_18_55
*473 FILLER_18_67
*474 FILLER_18_79
*475 FILLER_18_83
*476 FILLER_18_85
*477 FILLER_18_97
*478 FILLER_19_105
*479 FILLER_19_111
*480 FILLER_19_113
*481 FILLER_19_125
*482 FILLER_19_137
*483 FILLER_19_149
*484 FILLER_19_15
*485 FILLER_19_161
*486 FILLER_19_167
*487 FILLER_19_169
*488 FILLER_19_181
*489 FILLER_19_193
*490 FILLER_19_205
*491 FILLER_19_217
*492 FILLER_19_223
*493 FILLER_19_225
*494 FILLER_19_237
*495 FILLER_19_249
*496 FILLER_19_261
*497 FILLER_19_273
*498 FILLER_19_279
*499 FILLER_19_281
*500 FILLER_19_293
*501 FILLER_19_3
*502 FILLER_19_32
*503 FILLER_19_52
*504 FILLER_19_57
*505 FILLER_19_69
*506 FILLER_19_81
*507 FILLER_19_9
*508 FILLER_19_93
*509 FILLER_1_105
*510 FILLER_1_111
*511 FILLER_1_113
*512 FILLER_1_125
*513 FILLER_1_137
*514 FILLER_1_149
*515 FILLER_1_16
*516 FILLER_1_161
*517 FILLER_1_167
*518 FILLER_1_169
*519 FILLER_1_181
*520 FILLER_1_193
*521 FILLER_1_205
*522 FILLER_1_217
*523 FILLER_1_223
*524 FILLER_1_225
*525 FILLER_1_23
*526 FILLER_1_237
*527 FILLER_1_249
*528 FILLER_1_261
*529 FILLER_1_273
*530 FILLER_1_279
*531 FILLER_1_281
*532 FILLER_1_293
*533 FILLER_1_32
*534 FILLER_1_44
*535 FILLER_1_57
*536 FILLER_1_69
*537 FILLER_1_81
*538 FILLER_1_9
*539 FILLER_1_93
*540 FILLER_20_109
*541 FILLER_20_121
*542 FILLER_20_13
*543 FILLER_20_133
*544 FILLER_20_139
*545 FILLER_20_141
*546 FILLER_20_153
*547 FILLER_20_165
*548 FILLER_20_177
*549 FILLER_20_189
*550 FILLER_20_195
*551 FILLER_20_197
*552 FILLER_20_20
*553 FILLER_20_209
*554 FILLER_20_221
*555 FILLER_20_233
*556 FILLER_20_245
*557 FILLER_20_251
*558 FILLER_20_253
*559 FILLER_20_265
*560 FILLER_20_277
*561 FILLER_20_289
*562 FILLER_20_297
*563 FILLER_20_32
*564 FILLER_20_44
*565 FILLER_20_56
*566 FILLER_20_68
*567 FILLER_20_80
*568 FILLER_20_85
*569 FILLER_20_97
*570 FILLER_21_105
*571 FILLER_21_111
*572 FILLER_21_113
*573 FILLER_21_125
*574 FILLER_21_137
*575 FILLER_21_149
*576 FILLER_21_161
*577 FILLER_21_167
*578 FILLER_21_169
*579 FILLER_21_18
*580 FILLER_21_181
*581 FILLER_21_193
*582 FILLER_21_205
*583 FILLER_21_217
*584 FILLER_21_223
*585 FILLER_21_225
*586 FILLER_21_237
*587 FILLER_21_249
*588 FILLER_21_261
*589 FILLER_21_273
*590 FILLER_21_279
*591 FILLER_21_281
*592 FILLER_21_293
*593 FILLER_21_30
*594 FILLER_21_42
*595 FILLER_21_54
*596 FILLER_21_57
*597 FILLER_21_6
*598 FILLER_21_69
*599 FILLER_21_81
*600 FILLER_21_93
*601 FILLER_22_109
*602 FILLER_22_121
*603 FILLER_22_133
*604 FILLER_22_139
*605 FILLER_22_141
*606 FILLER_22_15
*607 FILLER_22_153
*608 FILLER_22_165
*609 FILLER_22_177
*610 FILLER_22_189
*611 FILLER_22_195
*612 FILLER_22_197
*613 FILLER_22_209
*614 FILLER_22_221
*615 FILLER_22_233
*616 FILLER_22_245
*617 FILLER_22_251
*618 FILLER_22_253
*619 FILLER_22_265
*620 FILLER_22_27
*621 FILLER_22_277
*622 FILLER_22_289
*623 FILLER_22_29
*624 FILLER_22_297
*625 FILLER_22_3
*626 FILLER_22_41
*627 FILLER_22_53
*628 FILLER_22_65
*629 FILLER_22_77
*630 FILLER_22_83
*631 FILLER_22_85
*632 FILLER_22_97
*633 FILLER_23_105
*634 FILLER_23_111
*635 FILLER_23_113
*636 FILLER_23_125
*637 FILLER_23_137
*638 FILLER_23_149
*639 FILLER_23_161
*640 FILLER_23_167
*641 FILLER_23_169
*642 FILLER_23_18
*643 FILLER_23_181
*644 FILLER_23_193
*645 FILLER_23_205
*646 FILLER_23_217
*647 FILLER_23_223
*648 FILLER_23_225
*649 FILLER_23_237
*650 FILLER_23_249
*651 FILLER_23_261
*652 FILLER_23_273
*653 FILLER_23_279
*654 FILLER_23_281
*655 FILLER_23_293
*656 FILLER_23_30
*657 FILLER_23_42
*658 FILLER_23_54
*659 FILLER_23_57
*660 FILLER_23_6
*661 FILLER_23_69
*662 FILLER_23_81
*663 FILLER_23_93
*664 FILLER_24_109
*665 FILLER_24_121
*666 FILLER_24_133
*667 FILLER_24_139
*668 FILLER_24_14
*669 FILLER_24_141
*670 FILLER_24_153
*671 FILLER_24_165
*672 FILLER_24_177
*673 FILLER_24_189
*674 FILLER_24_195
*675 FILLER_24_197
*676 FILLER_24_209
*677 FILLER_24_21
*678 FILLER_24_221
*679 FILLER_24_233
*680 FILLER_24_245
*681 FILLER_24_251
*682 FILLER_24_253
*683 FILLER_24_265
*684 FILLER_24_27
*685 FILLER_24_277
*686 FILLER_24_289
*687 FILLER_24_297
*688 FILLER_24_3
*689 FILLER_24_34
*690 FILLER_24_41
*691 FILLER_24_53
*692 FILLER_24_65
*693 FILLER_24_7
*694 FILLER_24_77
*695 FILLER_24_83
*696 FILLER_24_85
*697 FILLER_24_97
*698 FILLER_25_105
*699 FILLER_25_111
*700 FILLER_25_113
*701 FILLER_25_125
*702 FILLER_25_137
*703 FILLER_25_149
*704 FILLER_25_161
*705 FILLER_25_167
*706 FILLER_25_169
*707 FILLER_25_181
*708 FILLER_25_193
*709 FILLER_25_205
*710 FILLER_25_217
*711 FILLER_25_223
*712 FILLER_25_225
*713 FILLER_25_237
*714 FILLER_25_249
*715 FILLER_25_26
*716 FILLER_25_261
*717 FILLER_25_273
*718 FILLER_25_279
*719 FILLER_25_281
*720 FILLER_25_293
*721 FILLER_25_46
*722 FILLER_25_54
*723 FILLER_25_57
*724 FILLER_25_6
*725 FILLER_25_69
*726 FILLER_25_81
*727 FILLER_25_93
*728 FILLER_26_109
*729 FILLER_26_12
*730 FILLER_26_121
*731 FILLER_26_133
*732 FILLER_26_139
*733 FILLER_26_141
*734 FILLER_26_153
*735 FILLER_26_165
*736 FILLER_26_177
*737 FILLER_26_18
*738 FILLER_26_189
*739 FILLER_26_195
*740 FILLER_26_197
*741 FILLER_26_209
*742 FILLER_26_221
*743 FILLER_26_233
*744 FILLER_26_24
*745 FILLER_26_245
*746 FILLER_26_251
*747 FILLER_26_253
*748 FILLER_26_265
*749 FILLER_26_277
*750 FILLER_26_289
*751 FILLER_26_29
*752 FILLER_26_297
*753 FILLER_26_3
*754 FILLER_26_37
*755 FILLER_26_49
*756 FILLER_26_61
*757 FILLER_26_73
*758 FILLER_26_81
*759 FILLER_26_85
*760 FILLER_26_97
*761 FILLER_27_105
*762 FILLER_27_111
*763 FILLER_27_113
*764 FILLER_27_125
*765 FILLER_27_13
*766 FILLER_27_137
*767 FILLER_27_149
*768 FILLER_27_161
*769 FILLER_27_167
*770 FILLER_27_169
*771 FILLER_27_181
*772 FILLER_27_193
*773 FILLER_27_205
*774 FILLER_27_21
*775 FILLER_27_217
*776 FILLER_27_223
*777 FILLER_27_225
*778 FILLER_27_237
*779 FILLER_27_249
*780 FILLER_27_25
*781 FILLER_27_261
*782 FILLER_27_273
*783 FILLER_27_279
*784 FILLER_27_281
*785 FILLER_27_293
*786 FILLER_27_36
*787 FILLER_27_48
*788 FILLER_27_57
*789 FILLER_27_6
*790 FILLER_27_69
*791 FILLER_27_81
*792 FILLER_27_93
*793 FILLER_28_109
*794 FILLER_28_121
*795 FILLER_28_133
*796 FILLER_28_139
*797 FILLER_28_141
*798 FILLER_28_153
*799 FILLER_28_165
*800 FILLER_28_177
*801 FILLER_28_189
*802 FILLER_28_19
*803 FILLER_28_195
*804 FILLER_28_197
*805 FILLER_28_209
*806 FILLER_28_221
*807 FILLER_28_233
*808 FILLER_28_245
*809 FILLER_28_251
*810 FILLER_28_253
*811 FILLER_28_265
*812 FILLER_28_27
*813 FILLER_28_277
*814 FILLER_28_289
*815 FILLER_28_29
*816 FILLER_28_297
*817 FILLER_28_46
*818 FILLER_28_58
*819 FILLER_28_70
*820 FILLER_28_82
*821 FILLER_28_85
*822 FILLER_28_97
*823 FILLER_29_105
*824 FILLER_29_111
*825 FILLER_29_113
*826 FILLER_29_125
*827 FILLER_29_137
*828 FILLER_29_149
*829 FILLER_29_161
*830 FILLER_29_167
*831 FILLER_29_169
*832 FILLER_29_181
*833 FILLER_29_193
*834 FILLER_29_205
*835 FILLER_29_217
*836 FILLER_29_223
*837 FILLER_29_225
*838 FILLER_29_237
*839 FILLER_29_24
*840 FILLER_29_249
*841 FILLER_29_261
*842 FILLER_29_273
*843 FILLER_29_279
*844 FILLER_29_281
*845 FILLER_29_293
*846 FILLER_29_3
*847 FILLER_29_31
*848 FILLER_29_35
*849 FILLER_29_52
*850 FILLER_29_57
*851 FILLER_29_69
*852 FILLER_29_7
*853 FILLER_29_81
*854 FILLER_29_93
*855 FILLER_2_109
*856 FILLER_2_121
*857 FILLER_2_133
*858 FILLER_2_139
*859 FILLER_2_141
*860 FILLER_2_153
*861 FILLER_2_165
*862 FILLER_2_177
*863 FILLER_2_189
*864 FILLER_2_195
*865 FILLER_2_197
*866 FILLER_2_209
*867 FILLER_2_221
*868 FILLER_2_233
*869 FILLER_2_24
*870 FILLER_2_245
*871 FILLER_2_251
*872 FILLER_2_253
*873 FILLER_2_265
*874 FILLER_2_277
*875 FILLER_2_289
*876 FILLER_2_297
*877 FILLER_2_3
*878 FILLER_2_35
*879 FILLER_2_47
*880 FILLER_2_59
*881 FILLER_2_71
*882 FILLER_2_83
*883 FILLER_2_85
*884 FILLER_2_97
*885 FILLER_30_109
*886 FILLER_30_11
*887 FILLER_30_121
*888 FILLER_30_133
*889 FILLER_30_139
*890 FILLER_30_141
*891 FILLER_30_153
*892 FILLER_30_165
*893 FILLER_30_177
*894 FILLER_30_189
*895 FILLER_30_195
*896 FILLER_30_197
*897 FILLER_30_209
*898 FILLER_30_221
*899 FILLER_30_233
*900 FILLER_30_24
*901 FILLER_30_245
*902 FILLER_30_251
*903 FILLER_30_253
*904 FILLER_30_265
*905 FILLER_30_277
*906 FILLER_30_289
*907 FILLER_30_29
*908 FILLER_30_297
*909 FILLER_30_3
*910 FILLER_30_36
*911 FILLER_30_44
*912 FILLER_30_48
*913 FILLER_30_55
*914 FILLER_30_67
*915 FILLER_30_79
*916 FILLER_30_83
*917 FILLER_30_85
*918 FILLER_30_97
*919 FILLER_31_105
*920 FILLER_31_111
*921 FILLER_31_113
*922 FILLER_31_12
*923 FILLER_31_125
*924 FILLER_31_137
*925 FILLER_31_149
*926 FILLER_31_161
*927 FILLER_31_167
*928 FILLER_31_169
*929 FILLER_31_18
*930 FILLER_31_181
*931 FILLER_31_193
*932 FILLER_31_205
*933 FILLER_31_217
*934 FILLER_31_223
*935 FILLER_31_225
*936 FILLER_31_237
*937 FILLER_31_249
*938 FILLER_31_261
*939 FILLER_31_273
*940 FILLER_31_279
*941 FILLER_31_281
*942 FILLER_31_293
*943 FILLER_31_3
*944 FILLER_31_35
*945 FILLER_31_43
*946 FILLER_31_51
*947 FILLER_31_55
*948 FILLER_31_57
*949 FILLER_31_69
*950 FILLER_31_81
*951 FILLER_31_93
*952 FILLER_32_109
*953 FILLER_32_121
*954 FILLER_32_133
*955 FILLER_32_139
*956 FILLER_32_141
*957 FILLER_32_153
*958 FILLER_32_165
*959 FILLER_32_17
*960 FILLER_32_177
*961 FILLER_32_189
*962 FILLER_32_195
*963 FILLER_32_197
*964 FILLER_32_209
*965 FILLER_32_221
*966 FILLER_32_233
*967 FILLER_32_24
*968 FILLER_32_245
*969 FILLER_32_251
*970 FILLER_32_253
*971 FILLER_32_265
*972 FILLER_32_277
*973 FILLER_32_289
*974 FILLER_32_29
*975 FILLER_32_297
*976 FILLER_32_3
*977 FILLER_32_36
*978 FILLER_32_56
*979 FILLER_32_68
*980 FILLER_32_80
*981 FILLER_32_85
*982 FILLER_32_97
*983 FILLER_33_105
*984 FILLER_33_111
*985 FILLER_33_113
*986 FILLER_33_125
*987 FILLER_33_137
*988 FILLER_33_149
*989 FILLER_33_161
*990 FILLER_33_167
*991 FILLER_33_169
*992 FILLER_33_181
*993 FILLER_33_193
*994 FILLER_33_205
*995 FILLER_33_21
*996 FILLER_33_217
*997 FILLER_33_223
*998 FILLER_33_225
*999 FILLER_33_237
*1000 FILLER_33_249
*1001 FILLER_33_25
*1002 FILLER_33_261
*1003 FILLER_33_273
*1004 FILLER_33_279
*1005 FILLER_33_281
*1006 FILLER_33_293
*1007 FILLER_33_42
*1008 FILLER_33_51
*1009 FILLER_33_55
*1010 FILLER_33_57
*1011 FILLER_33_69
*1012 FILLER_33_7
*1013 FILLER_33_81
*1014 FILLER_33_93
*1015 FILLER_34_109
*1016 FILLER_34_12
*1017 FILLER_34_121
*1018 FILLER_34_133
*1019 FILLER_34_139
*1020 FILLER_34_141
*1021 FILLER_34_153
*1022 FILLER_34_165
*1023 FILLER_34_177
*1024 FILLER_34_189
*1025 FILLER_34_195
*1026 FILLER_34_197
*1027 FILLER_34_209
*1028 FILLER_34_221
*1029 FILLER_34_233
*1030 FILLER_34_24
*1031 FILLER_34_245
*1032 FILLER_34_251
*1033 FILLER_34_253
*1034 FILLER_34_265
*1035 FILLER_34_277
*1036 FILLER_34_289
*1037 FILLER_34_297
*1038 FILLER_34_3
*1039 FILLER_34_34
*1040 FILLER_34_42
*1041 FILLER_34_47
*1042 FILLER_34_59
*1043 FILLER_34_71
*1044 FILLER_34_83
*1045 FILLER_34_85
*1046 FILLER_34_97
*1047 FILLER_35_105
*1048 FILLER_35_111
*1049 FILLER_35_113
*1050 FILLER_35_125
*1051 FILLER_35_13
*1052 FILLER_35_137
*1053 FILLER_35_149
*1054 FILLER_35_161
*1055 FILLER_35_167
*1056 FILLER_35_169
*1057 FILLER_35_181
*1058 FILLER_35_19
*1059 FILLER_35_193
*1060 FILLER_35_205
*1061 FILLER_35_217
*1062 FILLER_35_223
*1063 FILLER_35_225
*1064 FILLER_35_237
*1065 FILLER_35_249
*1066 FILLER_35_26
*1067 FILLER_35_261
*1068 FILLER_35_273
*1069 FILLER_35_279
*1070 FILLER_35_281
*1071 FILLER_35_293
*1072 FILLER_35_3
*1073 FILLER_35_34
*1074 FILLER_35_52
*1075 FILLER_35_57
*1076 FILLER_35_69
*1077 FILLER_35_81
*1078 FILLER_35_93
*1079 FILLER_36_109
*1080 FILLER_36_11
*1081 FILLER_36_121
*1082 FILLER_36_133
*1083 FILLER_36_139
*1084 FILLER_36_141
*1085 FILLER_36_153
*1086 FILLER_36_165
*1087 FILLER_36_177
*1088 FILLER_36_18
*1089 FILLER_36_189
*1090 FILLER_36_195
*1091 FILLER_36_197
*1092 FILLER_36_209
*1093 FILLER_36_221
*1094 FILLER_36_233
*1095 FILLER_36_245
*1096 FILLER_36_251
*1097 FILLER_36_253
*1098 FILLER_36_26
*1099 FILLER_36_265
*1100 FILLER_36_277
*1101 FILLER_36_289
*1102 FILLER_36_297
*1103 FILLER_36_3
*1104 FILLER_36_32
*1105 FILLER_36_44
*1106 FILLER_36_50
*1107 FILLER_36_62
*1108 FILLER_36_74
*1109 FILLER_36_82
*1110 FILLER_36_85
*1111 FILLER_36_97
*1112 FILLER_37_105
*1113 FILLER_37_111
*1114 FILLER_37_113
*1115 FILLER_37_12
*1116 FILLER_37_125
*1117 FILLER_37_137
*1118 FILLER_37_149
*1119 FILLER_37_161
*1120 FILLER_37_167
*1121 FILLER_37_169
*1122 FILLER_37_181
*1123 FILLER_37_193
*1124 FILLER_37_205
*1125 FILLER_37_217
*1126 FILLER_37_223
*1127 FILLER_37_225
*1128 FILLER_37_237
*1129 FILLER_37_249
*1130 FILLER_37_261
*1131 FILLER_37_273
*1132 FILLER_37_279
*1133 FILLER_37_281
*1134 FILLER_37_293
*1135 FILLER_37_3
*1136 FILLER_37_32
*1137 FILLER_37_52
*1138 FILLER_37_57
*1139 FILLER_37_69
*1140 FILLER_37_81
*1141 FILLER_37_93
*1142 FILLER_38_109
*1143 FILLER_38_121
*1144 FILLER_38_133
*1145 FILLER_38_139
*1146 FILLER_38_141
*1147 FILLER_38_153
*1148 FILLER_38_165
*1149 FILLER_38_177
*1150 FILLER_38_189
*1151 FILLER_38_19
*1152 FILLER_38_195
*1153 FILLER_38_197
*1154 FILLER_38_209
*1155 FILLER_38_221
*1156 FILLER_38_233
*1157 FILLER_38_245
*1158 FILLER_38_251
*1159 FILLER_38_253
*1160 FILLER_38_265
*1161 FILLER_38_27
*1162 FILLER_38_277
*1163 FILLER_38_289
*1164 FILLER_38_29
*1165 FILLER_38_297
*1166 FILLER_38_35
*1167 FILLER_38_48
*1168 FILLER_38_55
*1169 FILLER_38_67
*1170 FILLER_38_79
*1171 FILLER_38_83
*1172 FILLER_38_85
*1173 FILLER_38_97
*1174 FILLER_39_105
*1175 FILLER_39_111
*1176 FILLER_39_113
*1177 FILLER_39_12
*1178 FILLER_39_125
*1179 FILLER_39_137
*1180 FILLER_39_149
*1181 FILLER_39_161
*1182 FILLER_39_167
*1183 FILLER_39_169
*1184 FILLER_39_181
*1185 FILLER_39_193
*1186 FILLER_39_205
*1187 FILLER_39_21
*1188 FILLER_39_217
*1189 FILLER_39_223
*1190 FILLER_39_225
*1191 FILLER_39_237
*1192 FILLER_39_249
*1193 FILLER_39_261
*1194 FILLER_39_273
*1195 FILLER_39_279
*1196 FILLER_39_281
*1197 FILLER_39_29
*1198 FILLER_39_293
*1199 FILLER_39_3
*1200 FILLER_39_47
*1201 FILLER_39_55
*1202 FILLER_39_57
*1203 FILLER_39_69
*1204 FILLER_39_81
*1205 FILLER_39_93
*1206 FILLER_3_10
*1207 FILLER_3_105
*1208 FILLER_3_111
*1209 FILLER_3_113
*1210 FILLER_3_125
*1211 FILLER_3_137
*1212 FILLER_3_149
*1213 FILLER_3_161
*1214 FILLER_3_167
*1215 FILLER_3_169
*1216 FILLER_3_181
*1217 FILLER_3_193
*1218 FILLER_3_205
*1219 FILLER_3_217
*1220 FILLER_3_223
*1221 FILLER_3_225
*1222 FILLER_3_237
*1223 FILLER_3_249
*1224 FILLER_3_261
*1225 FILLER_3_273
*1226 FILLER_3_279
*1227 FILLER_3_281
*1228 FILLER_3_293
*1229 FILLER_3_3
*1230 FILLER_3_36
*1231 FILLER_3_43
*1232 FILLER_3_55
*1233 FILLER_3_57
*1234 FILLER_3_69
*1235 FILLER_3_81
*1236 FILLER_3_93
*1237 FILLER_40_10
*1238 FILLER_40_109
*1239 FILLER_40_121
*1240 FILLER_40_133
*1241 FILLER_40_139
*1242 FILLER_40_141
*1243 FILLER_40_153
*1244 FILLER_40_165
*1245 FILLER_40_177
*1246 FILLER_40_189
*1247 FILLER_40_195
*1248 FILLER_40_197
*1249 FILLER_40_209
*1250 FILLER_40_221
*1251 FILLER_40_23
*1252 FILLER_40_233
*1253 FILLER_40_245
*1254 FILLER_40_251
*1255 FILLER_40_253
*1256 FILLER_40_265
*1257 FILLER_40_27
*1258 FILLER_40_277
*1259 FILLER_40_289
*1260 FILLER_40_29
*1261 FILLER_40_297
*1262 FILLER_40_3
*1263 FILLER_40_36
*1264 FILLER_40_43
*1265 FILLER_40_55
*1266 FILLER_40_67
*1267 FILLER_40_79
*1268 FILLER_40_83
*1269 FILLER_40_85
*1270 FILLER_40_97
*1271 FILLER_41_105
*1272 FILLER_41_111
*1273 FILLER_41_113
*1274 FILLER_41_125
*1275 FILLER_41_137
*1276 FILLER_41_149
*1277 FILLER_41_161
*1278 FILLER_41_167
*1279 FILLER_41_169
*1280 FILLER_41_181
*1281 FILLER_41_193
*1282 FILLER_41_205
*1283 FILLER_41_217
*1284 FILLER_41_223
*1285 FILLER_41_225
*1286 FILLER_41_237
*1287 FILLER_41_249
*1288 FILLER_41_26
*1289 FILLER_41_261
*1290 FILLER_41_273
*1291 FILLER_41_279
*1292 FILLER_41_281
*1293 FILLER_41_293
*1294 FILLER_41_35
*1295 FILLER_41_47
*1296 FILLER_41_55
*1297 FILLER_41_57
*1298 FILLER_41_6
*1299 FILLER_41_69
*1300 FILLER_41_81
*1301 FILLER_41_93
*1302 FILLER_42_109
*1303 FILLER_42_121
*1304 FILLER_42_133
*1305 FILLER_42_139
*1306 FILLER_42_141
*1307 FILLER_42_153
*1308 FILLER_42_165
*1309 FILLER_42_177
*1310 FILLER_42_189
*1311 FILLER_42_19
*1312 FILLER_42_195
*1313 FILLER_42_197
*1314 FILLER_42_209
*1315 FILLER_42_221
*1316 FILLER_42_233
*1317 FILLER_42_245
*1318 FILLER_42_251
*1319 FILLER_42_253
*1320 FILLER_42_265
*1321 FILLER_42_27
*1322 FILLER_42_277
*1323 FILLER_42_289
*1324 FILLER_42_29
*1325 FILLER_42_297
*1326 FILLER_42_41
*1327 FILLER_42_53
*1328 FILLER_42_65
*1329 FILLER_42_77
*1330 FILLER_42_83
*1331 FILLER_42_85
*1332 FILLER_42_97
*1333 FILLER_43_105
*1334 FILLER_43_111
*1335 FILLER_43_113
*1336 FILLER_43_125
*1337 FILLER_43_137
*1338 FILLER_43_149
*1339 FILLER_43_16
*1340 FILLER_43_161
*1341 FILLER_43_167
*1342 FILLER_43_169
*1343 FILLER_43_181
*1344 FILLER_43_193
*1345 FILLER_43_205
*1346 FILLER_43_217
*1347 FILLER_43_223
*1348 FILLER_43_225
*1349 FILLER_43_237
*1350 FILLER_43_249
*1351 FILLER_43_261
*1352 FILLER_43_273
*1353 FILLER_43_279
*1354 FILLER_43_28
*1355 FILLER_43_281
*1356 FILLER_43_293
*1357 FILLER_43_3
*1358 FILLER_43_40
*1359 FILLER_43_52
*1360 FILLER_43_57
*1361 FILLER_43_69
*1362 FILLER_43_81
*1363 FILLER_43_9
*1364 FILLER_43_93
*1365 FILLER_44_10
*1366 FILLER_44_109
*1367 FILLER_44_121
*1368 FILLER_44_133
*1369 FILLER_44_139
*1370 FILLER_44_141
*1371 FILLER_44_153
*1372 FILLER_44_165
*1373 FILLER_44_177
*1374 FILLER_44_189
*1375 FILLER_44_195
*1376 FILLER_44_197
*1377 FILLER_44_209
*1378 FILLER_44_22
*1379 FILLER_44_221
*1380 FILLER_44_233
*1381 FILLER_44_245
*1382 FILLER_44_251
*1383 FILLER_44_253
*1384 FILLER_44_265
*1385 FILLER_44_277
*1386 FILLER_44_289
*1387 FILLER_44_29
*1388 FILLER_44_297
*1389 FILLER_44_3
*1390 FILLER_44_41
*1391 FILLER_44_53
*1392 FILLER_44_65
*1393 FILLER_44_77
*1394 FILLER_44_83
*1395 FILLER_44_85
*1396 FILLER_44_97
*1397 FILLER_45_105
*1398 FILLER_45_111
*1399 FILLER_45_113
*1400 FILLER_45_125
*1401 FILLER_45_137
*1402 FILLER_45_149
*1403 FILLER_45_15
*1404 FILLER_45_161
*1405 FILLER_45_167
*1406 FILLER_45_169
*1407 FILLER_45_181
*1408 FILLER_45_193
*1409 FILLER_45_205
*1410 FILLER_45_217
*1411 FILLER_45_223
*1412 FILLER_45_225
*1413 FILLER_45_237
*1414 FILLER_45_249
*1415 FILLER_45_261
*1416 FILLER_45_27
*1417 FILLER_45_273
*1418 FILLER_45_279
*1419 FILLER_45_281
*1420 FILLER_45_293
*1421 FILLER_45_3
*1422 FILLER_45_39
*1423 FILLER_45_51
*1424 FILLER_45_55
*1425 FILLER_45_57
*1426 FILLER_45_69
*1427 FILLER_45_81
*1428 FILLER_45_93
*1429 FILLER_46_10
*1430 FILLER_46_109
*1431 FILLER_46_121
*1432 FILLER_46_133
*1433 FILLER_46_139
*1434 FILLER_46_141
*1435 FILLER_46_153
*1436 FILLER_46_165
*1437 FILLER_46_177
*1438 FILLER_46_189
*1439 FILLER_46_195
*1440 FILLER_46_197
*1441 FILLER_46_209
*1442 FILLER_46_22
*1443 FILLER_46_221
*1444 FILLER_46_233
*1445 FILLER_46_245
*1446 FILLER_46_251
*1447 FILLER_46_253
*1448 FILLER_46_265
*1449 FILLER_46_277
*1450 FILLER_46_289
*1451 FILLER_46_29
*1452 FILLER_46_297
*1453 FILLER_46_41
*1454 FILLER_46_53
*1455 FILLER_46_65
*1456 FILLER_46_77
*1457 FILLER_46_83
*1458 FILLER_46_85
*1459 FILLER_46_97
*1460 FILLER_47_105
*1461 FILLER_47_111
*1462 FILLER_47_113
*1463 FILLER_47_125
*1464 FILLER_47_137
*1465 FILLER_47_149
*1466 FILLER_47_161
*1467 FILLER_47_167
*1468 FILLER_47_169
*1469 FILLER_47_181
*1470 FILLER_47_19
*1471 FILLER_47_193
*1472 FILLER_47_205
*1473 FILLER_47_217
*1474 FILLER_47_223
*1475 FILLER_47_225
*1476 FILLER_47_237
*1477 FILLER_47_249
*1478 FILLER_47_261
*1479 FILLER_47_273
*1480 FILLER_47_279
*1481 FILLER_47_281
*1482 FILLER_47_293
*1483 FILLER_47_31
*1484 FILLER_47_43
*1485 FILLER_47_55
*1486 FILLER_47_57
*1487 FILLER_47_69
*1488 FILLER_47_81
*1489 FILLER_47_93
*1490 FILLER_48_109
*1491 FILLER_48_121
*1492 FILLER_48_133
*1493 FILLER_48_139
*1494 FILLER_48_141
*1495 FILLER_48_153
*1496 FILLER_48_165
*1497 FILLER_48_177
*1498 FILLER_48_189
*1499 FILLER_48_195
*1500 FILLER_48_197
*1501 FILLER_48_209
*1502 FILLER_48_21
*1503 FILLER_48_221
*1504 FILLER_48_233
*1505 FILLER_48_245
*1506 FILLER_48_251
*1507 FILLER_48_253
*1508 FILLER_48_265
*1509 FILLER_48_27
*1510 FILLER_48_277
*1511 FILLER_48_289
*1512 FILLER_48_29
*1513 FILLER_48_297
*1514 FILLER_48_3
*1515 FILLER_48_41
*1516 FILLER_48_53
*1517 FILLER_48_65
*1518 FILLER_48_77
*1519 FILLER_48_83
*1520 FILLER_48_85
*1521 FILLER_48_9
*1522 FILLER_48_97
*1523 FILLER_49_105
*1524 FILLER_49_111
*1525 FILLER_49_113
*1526 FILLER_49_125
*1527 FILLER_49_137
*1528 FILLER_49_149
*1529 FILLER_49_15
*1530 FILLER_49_161
*1531 FILLER_49_167
*1532 FILLER_49_169
*1533 FILLER_49_181
*1534 FILLER_49_193
*1535 FILLER_49_205
*1536 FILLER_49_217
*1537 FILLER_49_223
*1538 FILLER_49_225
*1539 FILLER_49_237
*1540 FILLER_49_249
*1541 FILLER_49_261
*1542 FILLER_49_27
*1543 FILLER_49_273
*1544 FILLER_49_279
*1545 FILLER_49_281
*1546 FILLER_49_293
*1547 FILLER_49_3
*1548 FILLER_49_39
*1549 FILLER_49_51
*1550 FILLER_49_55
*1551 FILLER_49_57
*1552 FILLER_49_69
*1553 FILLER_49_81
*1554 FILLER_49_93
*1555 FILLER_4_109
*1556 FILLER_4_121
*1557 FILLER_4_133
*1558 FILLER_4_139
*1559 FILLER_4_141
*1560 FILLER_4_153
*1561 FILLER_4_165
*1562 FILLER_4_177
*1563 FILLER_4_189
*1564 FILLER_4_195
*1565 FILLER_4_197
*1566 FILLER_4_209
*1567 FILLER_4_21
*1568 FILLER_4_221
*1569 FILLER_4_233
*1570 FILLER_4_245
*1571 FILLER_4_251
*1572 FILLER_4_253
*1573 FILLER_4_265
*1574 FILLER_4_27
*1575 FILLER_4_277
*1576 FILLER_4_289
*1577 FILLER_4_29
*1578 FILLER_4_297
*1579 FILLER_4_3
*1580 FILLER_4_37
*1581 FILLER_4_47
*1582 FILLER_4_59
*1583 FILLER_4_71
*1584 FILLER_4_83
*1585 FILLER_4_85
*1586 FILLER_4_97
*1587 FILLER_50_109
*1588 FILLER_50_121
*1589 FILLER_50_133
*1590 FILLER_50_139
*1591 FILLER_50_141
*1592 FILLER_50_15
*1593 FILLER_50_153
*1594 FILLER_50_165
*1595 FILLER_50_177
*1596 FILLER_50_189
*1597 FILLER_50_195
*1598 FILLER_50_197
*1599 FILLER_50_209
*1600 FILLER_50_221
*1601 FILLER_50_233
*1602 FILLER_50_245
*1603 FILLER_50_251
*1604 FILLER_50_253