*SPEF "ieee 1481-1999"
*DESIGN "user_module_341490465660469844"
*DATE "11:11:11 Fri 11 11, 1111"
*VENDOR "OpenRCX"
*PROGRAM "Parallel Extraction"
*VERSION "1.0"
*DESIGN_FLOW "NAME_SCOPE LOCAL" "PIN_CAP NONE"
*DIVIDER /
*DELIMITER :
*BUS_DELIMITER []
*T_UNIT 1 NS
*C_UNIT 1 PF
*R_UNIT 1 OHM
*L_UNIT 1 HENRY

*NAME_MAP
*1 io_in[0]
*2 io_in[1]
*3 io_in[2]
*4 io_in[3]
*5 io_in[4]
*6 io_in[5]
*7 io_in[6]
*8 io_in[7]
*9 net3
*10 net4
*11 net5
*12 net6
*13 net7
*14 net8
*15 net9
*16 io_out[7]
*19 _00_
*20 _01_
*21 _02_
*22 flipflop10\.clk
*23 flipflop10\.d
*24 flipflop10\.q
*25 flipflop11\.clk
*26 flipflop11\.d
*27 flipflop11\.q
*28 flipflop12\.clk
*29 flipflop12\.d
*30 flipflop12\.q
*31 flipflop13\.d
*32 flipflop14\.d
*33 flipflop14\.q
*34 flipflop15\.clk
*35 flipflop15\.d
*36 flipflop15\.q
*37 flipflop16\.d
*38 flipflop17\.d
*39 flipflop17\.q
*40 flipflop18\.clk
*41 flipflop18\.d
*42 flipflop18\.q
*43 flipflop19\.d
*44 flipflop2\.clk
*45 flipflop2\.d
*46 flipflop2\.q
*47 flipflop3\.clk
*48 flipflop3\.d
*49 flipflop3\.q
*50 flipflop4\.q
*51 flipflop5\.d
*52 flipflop5\.q
*53 flipflop8\.d
*54 flipflop9\.d
*55 net1
*56 net2
*57 FILLER_0_109
*58 FILLER_0_113
*59 FILLER_0_125
*60 FILLER_0_137
*61 FILLER_0_141
*62 FILLER_0_15
*63 FILLER_0_153
*64 FILLER_0_165
*65 FILLER_0_169
*66 FILLER_0_181
*67 FILLER_0_193
*68 FILLER_0_197
*69 FILLER_0_209
*70 FILLER_0_221
*71 FILLER_0_225
*72 FILLER_0_237
*73 FILLER_0_249
*74 FILLER_0_253
*75 FILLER_0_265
*76 FILLER_0_27
*77 FILLER_0_277
*78 FILLER_0_281
*79 FILLER_0_29
*80 FILLER_0_293
*81 FILLER_0_3
*82 FILLER_0_41
*83 FILLER_0_53
*84 FILLER_0_57
*85 FILLER_0_69
*86 FILLER_0_81
*87 FILLER_0_85
*88 FILLER_0_97
*89 FILLER_10_109
*90 FILLER_10_11
*91 FILLER_10_121
*92 FILLER_10_133
*93 FILLER_10_139
*94 FILLER_10_141
*95 FILLER_10_153
*96 FILLER_10_165
*97 FILLER_10_17
*98 FILLER_10_177
*99 FILLER_10_189
*100 FILLER_10_195
*101 FILLER_10_197
*102 FILLER_10_209
*103 FILLER_10_221
*104 FILLER_10_233
*105 FILLER_10_245
*106 FILLER_10_25
*107 FILLER_10_251
*108 FILLER_10_253
*109 FILLER_10_265
*110 FILLER_10_277
*111 FILLER_10_289
*112 FILLER_10_29
*113 FILLER_10_297
*114 FILLER_10_3
*115 FILLER_10_41
*116 FILLER_10_53
*117 FILLER_10_65
*118 FILLER_10_77
*119 FILLER_10_83
*120 FILLER_10_85
*121 FILLER_10_97
*122 FILLER_11_105
*123 FILLER_11_111
*124 FILLER_11_113
*125 FILLER_11_125
*126 FILLER_11_137
*127 FILLER_11_149
*128 FILLER_11_161
*129 FILLER_11_167
*130 FILLER_11_169
*131 FILLER_11_181
*132 FILLER_11_193
*133 FILLER_11_205
*134 FILLER_11_217
*135 FILLER_11_223
*136 FILLER_11_225
*137 FILLER_11_237
*138 FILLER_11_249
*139 FILLER_11_261
*140 FILLER_11_27
*141 FILLER_11_273
*142 FILLER_11_279
*143 FILLER_11_281
*144 FILLER_11_293
*145 FILLER_11_3
*146 FILLER_11_39
*147 FILLER_11_51
*148 FILLER_11_55
*149 FILLER_11_57
*150 FILLER_11_69
*151 FILLER_11_81
*152 FILLER_11_93
*153 FILLER_12_109
*154 FILLER_12_121
*155 FILLER_12_133
*156 FILLER_12_139
*157 FILLER_12_141
*158 FILLER_12_15
*159 FILLER_12_153
*160 FILLER_12_165
*161 FILLER_12_177
*162 FILLER_12_189
*163 FILLER_12_195
*164 FILLER_12_197
*165 FILLER_12_209
*166 FILLER_12_221
*167 FILLER_12_233
*168 FILLER_12_245
*169 FILLER_12_251
*170 FILLER_12_253
*171 FILLER_12_265
*172 FILLER_12_27
*173 FILLER_12_277
*174 FILLER_12_289
*175 FILLER_12_29
*176 FILLER_12_297
*177 FILLER_12_3
*178 FILLER_12_41
*179 FILLER_12_53
*180 FILLER_12_65
*181 FILLER_12_77
*182 FILLER_12_83
*183 FILLER_12_85
*184 FILLER_12_97
*185 FILLER_13_105
*186 FILLER_13_111
*187 FILLER_13_113
*188 FILLER_13_125
*189 FILLER_13_137
*190 FILLER_13_149
*191 FILLER_13_15
*192 FILLER_13_161
*193 FILLER_13_167
*194 FILLER_13_169
*195 FILLER_13_181
*196 FILLER_13_193
*197 FILLER_13_205
*198 FILLER_13_217
*199 FILLER_13_223
*200 FILLER_13_225
*201 FILLER_13_237
*202 FILLER_13_249
*203 FILLER_13_261
*204 FILLER_13_27
*205 FILLER_13_273
*206 FILLER_13_279
*207 FILLER_13_281
*208 FILLER_13_293
*209 FILLER_13_3
*210 FILLER_13_39
*211 FILLER_13_51
*212 FILLER_13_55
*213 FILLER_13_57
*214 FILLER_13_69
*215 FILLER_13_81
*216 FILLER_13_93
*217 FILLER_14_109
*218 FILLER_14_121
*219 FILLER_14_133
*220 FILLER_14_139
*221 FILLER_14_141
*222 FILLER_14_15
*223 FILLER_14_153
*224 FILLER_14_165
*225 FILLER_14_177
*226 FILLER_14_189
*227 FILLER_14_195
*228 FILLER_14_197
*229 FILLER_14_209
*230 FILLER_14_221
*231 FILLER_14_233
*232 FILLER_14_245
*233 FILLER_14_251
*234 FILLER_14_253
*235 FILLER_14_265
*236 FILLER_14_27
*237 FILLER_14_277
*238 FILLER_14_289
*239 FILLER_14_29
*240 FILLER_14_297
*241 FILLER_14_3
*242 FILLER_14_41
*243 FILLER_14_53
*244 FILLER_14_65
*245 FILLER_14_77
*246 FILLER_14_83
*247 FILLER_14_85
*248 FILLER_14_97
*249 FILLER_15_105
*250 FILLER_15_111
*251 FILLER_15_113
*252 FILLER_15_125
*253 FILLER_15_137
*254 FILLER_15_149
*255 FILLER_15_15
*256 FILLER_15_161
*257 FILLER_15_167
*258 FILLER_15_169
*259 FILLER_15_181
*260 FILLER_15_193
*261 FILLER_15_205
*262 FILLER_15_217
*263 FILLER_15_223
*264 FILLER_15_225
*265 FILLER_15_237
*266 FILLER_15_249
*267 FILLER_15_261
*268 FILLER_15_27
*269 FILLER_15_273
*270 FILLER_15_279
*271 FILLER_15_281
*272 FILLER_15_293
*273 FILLER_15_3
*274 FILLER_15_39
*275 FILLER_15_51
*276 FILLER_15_55
*277 FILLER_15_57
*278 FILLER_15_69
*279 FILLER_15_81
*280 FILLER_15_93
*281 FILLER_16_109
*282 FILLER_16_121
*283 FILLER_16_133
*284 FILLER_16_139
*285 FILLER_16_141
*286 FILLER_16_153
*287 FILLER_16_165
*288 FILLER_16_177
*289 FILLER_16_189
*290 FILLER_16_195
*291 FILLER_16_197
*292 FILLER_16_209
*293 FILLER_16_221
*294 FILLER_16_233
*295 FILLER_16_24
*296 FILLER_16_245
*297 FILLER_16_251
*298 FILLER_16_253
*299 FILLER_16_265
*300 FILLER_16_277
*301 FILLER_16_289
*302 FILLER_16_29
*303 FILLER_16_297
*304 FILLER_16_3
*305 FILLER_16_41
*306 FILLER_16_53
*307 FILLER_16_65
*308 FILLER_16_7
*309 FILLER_16_77
*310 FILLER_16_83
*311 FILLER_16_85
*312 FILLER_16_97
*313 FILLER_17_105
*314 FILLER_17_111
*315 FILLER_17_113
*316 FILLER_17_125
*317 FILLER_17_137
*318 FILLER_17_149
*319 FILLER_17_15
*320 FILLER_17_161
*321 FILLER_17_167
*322 FILLER_17_169
*323 FILLER_17_181
*324 FILLER_17_193
*325 FILLER_17_205
*326 FILLER_17_217
*327 FILLER_17_223
*328 FILLER_17_225
*329 FILLER_17_237
*330 FILLER_17_249
*331 FILLER_17_261
*332 FILLER_17_273
*333 FILLER_17_279
*334 FILLER_17_281
*335 FILLER_17_293
*336 FILLER_17_3
*337 FILLER_17_35
*338 FILLER_17_47
*339 FILLER_17_55
*340 FILLER_17_57
*341 FILLER_17_69
*342 FILLER_17_81
*343 FILLER_17_93
*344 FILLER_18_109
*345 FILLER_18_121
*346 FILLER_18_133
*347 FILLER_18_139
*348 FILLER_18_141
*349 FILLER_18_153
*350 FILLER_18_165
*351 FILLER_18_177
*352 FILLER_18_18
*353 FILLER_18_189
*354 FILLER_18_195
*355 FILLER_18_197
*356 FILLER_18_209
*357 FILLER_18_221
*358 FILLER_18_233
*359 FILLER_18_24
*360 FILLER_18_245
*361 FILLER_18_251
*362 FILLER_18_253
*363 FILLER_18_265
*364 FILLER_18_277
*365 FILLER_18_289
*366 FILLER_18_29
*367 FILLER_18_297
*368 FILLER_18_34
*369 FILLER_18_46
*370 FILLER_18_58
*371 FILLER_18_6
*372 FILLER_18_70
*373 FILLER_18_82
*374 FILLER_18_85
*375 FILLER_18_97
*376 FILLER_19_10
*377 FILLER_19_105
*378 FILLER_19_111
*379 FILLER_19_113
*380 FILLER_19_125
*381 FILLER_19_137
*382 FILLER_19_14
*383 FILLER_19_149
*384 FILLER_19_161
*385 FILLER_19_167
*386 FILLER_19_169
*387 FILLER_19_181
*388 FILLER_19_19
*389 FILLER_19_193
*390 FILLER_19_205
*391 FILLER_19_217
*392 FILLER_19_223
*393 FILLER_19_225
*394 FILLER_19_237
*395 FILLER_19_249
*396 FILLER_19_25
*397 FILLER_19_261
*398 FILLER_19_273
*399 FILLER_19_279
*400 FILLER_19_281
*401 FILLER_19_293
*402 FILLER_19_3
*403 FILLER_19_42
*404 FILLER_19_54
*405 FILLER_19_57
*406 FILLER_19_69
*407 FILLER_19_81
*408 FILLER_19_93
*409 FILLER_1_105
*410 FILLER_1_111
*411 FILLER_1_113
*412 FILLER_1_125
*413 FILLER_1_137
*414 FILLER_1_149
*415 FILLER_1_161
*416 FILLER_1_167
*417 FILLER_1_169
*418 FILLER_1_181
*419 FILLER_1_19
*420 FILLER_1_193
*421 FILLER_1_205
*422 FILLER_1_217
*423 FILLER_1_223
*424 FILLER_1_225
*425 FILLER_1_237
*426 FILLER_1_249
*427 FILLER_1_261
*428 FILLER_1_273
*429 FILLER_1_279
*430 FILLER_1_281
*431 FILLER_1_293
*432 FILLER_1_31
*433 FILLER_1_43
*434 FILLER_1_55
*435 FILLER_1_57
*436 FILLER_1_69
*437 FILLER_1_81
*438 FILLER_1_93
*439 FILLER_20_109
*440 FILLER_20_121
*441 FILLER_20_133
*442 FILLER_20_139
*443 FILLER_20_141
*444 FILLER_20_153
*445 FILLER_20_165
*446 FILLER_20_177
*447 FILLER_20_189
*448 FILLER_20_195
*449 FILLER_20_197
*450 FILLER_20_209
*451 FILLER_20_221
*452 FILLER_20_233
*453 FILLER_20_24
*454 FILLER_20_245
*455 FILLER_20_251
*456 FILLER_20_253
*457 FILLER_20_265
*458 FILLER_20_277
*459 FILLER_20_289
*460 FILLER_20_29
*461 FILLER_20_297
*462 FILLER_20_3
*463 FILLER_20_34
*464 FILLER_20_46
*465 FILLER_20_58
*466 FILLER_20_7
*467 FILLER_20_70
*468 FILLER_20_82
*469 FILLER_20_85
*470 FILLER_20_97
*471 FILLER_21_105
*472 FILLER_21_111
*473 FILLER_21_113
*474 FILLER_21_125
*475 FILLER_21_137
*476 FILLER_21_149
*477 FILLER_21_161
*478 FILLER_21_167
*479 FILLER_21_169
*480 FILLER_21_181
*481 FILLER_21_193
*482 FILLER_21_205
*483 FILLER_21_217
*484 FILLER_21_223
*485 FILLER_21_225
*486 FILLER_21_237
*487 FILLER_21_24
*488 FILLER_21_249
*489 FILLER_21_261
*490 FILLER_21_273
*491 FILLER_21_279
*492 FILLER_21_281
*493 FILLER_21_293
*494 FILLER_21_44
*495 FILLER_21_57
*496 FILLER_21_69
*497 FILLER_21_81
*498 FILLER_21_93
*499 FILLER_22_109
*500 FILLER_22_121
*501 FILLER_22_133
*502 FILLER_22_139
*503 FILLER_22_141
*504 FILLER_22_153
*505 FILLER_22_165
*506 FILLER_22_177
*507 FILLER_22_189
*508 FILLER_22_19
*509 FILLER_22_195
*510 FILLER_22_197
*511 FILLER_22_209
*512 FILLER_22_221
*513 FILLER_22_233
*514 FILLER_22_245
*515 FILLER_22_251
*516 FILLER_22_253
*517 FILLER_22_265
*518 FILLER_22_27
*519 FILLER_22_277
*520 FILLER_22_289
*521 FILLER_22_29
*522 FILLER_22_297
*523 FILLER_22_41
*524 FILLER_22_53
*525 FILLER_22_65
*526 FILLER_22_77
*527 FILLER_22_83
*528 FILLER_22_85
*529 FILLER_22_97
*530 FILLER_23_105
*531 FILLER_23_111
*532 FILLER_23_113
*533 FILLER_23_125
*534 FILLER_23_137
*535 FILLER_23_149
*536 FILLER_23_15
*537 FILLER_23_161
*538 FILLER_23_167
*539 FILLER_23_169
*540 FILLER_23_181
*541 FILLER_23_193
*542 FILLER_23_205
*543 FILLER_23_217
*544 FILLER_23_223
*545 FILLER_23_225
*546 FILLER_23_237
*547 FILLER_23_249
*548 FILLER_23_261
*549 FILLER_23_27
*550 FILLER_23_273
*551 FILLER_23_279
*552 FILLER_23_281
*553 FILLER_23_293
*554 FILLER_23_3
*555 FILLER_23_39
*556 FILLER_23_51
*557 FILLER_23_55
*558 FILLER_23_57
*559 FILLER_23_69
*560 FILLER_23_81
*561 FILLER_23_93
*562 FILLER_24_109
*563 FILLER_24_12
*564 FILLER_24_121
*565 FILLER_24_133
*566 FILLER_24_139
*567 FILLER_24_141
*568 FILLER_24_153
*569 FILLER_24_165
*570 FILLER_24_17
*571 FILLER_24_177
*572 FILLER_24_189
*573 FILLER_24_195
*574 FILLER_24_197
*575 FILLER_24_209
*576 FILLER_24_221
*577 FILLER_24_233
*578 FILLER_24_24
*579 FILLER_24_245
*580 FILLER_24_251
*581 FILLER_24_253
*582 FILLER_24_265
*583 FILLER_24_277
*584 FILLER_24_289
*585 FILLER_24_29
*586 FILLER_24_297
*587 FILLER_24_41
*588 FILLER_24_53
*589 FILLER_24_6
*590 FILLER_24_65
*591 FILLER_24_77
*592 FILLER_24_83
*593 FILLER_24_85
*594 FILLER_24_97
*595 FILLER_25_105
*596 FILLER_25_111
*597 FILLER_25_113
*598 FILLER_25_125
*599 FILLER_25_137
*600 FILLER_25_149
*601 FILLER_25_161
*602 FILLER_25_167
*603 FILLER_25_169
*604 FILLER_25_181
*605 FILLER_25_193
*606 FILLER_25_205
*607 FILLER_25_217
*608 FILLER_25_223
*609 FILLER_25_225
*610 FILLER_25_237
*611 FILLER_25_249
*612 FILLER_25_26
*613 FILLER_25_261
*614 FILLER_25_273
*615 FILLER_25_279
*616 FILLER_25_281
*617 FILLER_25_293
*618 FILLER_25_3
*619 FILLER_25_38
*620 FILLER_25_50
*621 FILLER_25_57
*622 FILLER_25_69
*623 FILLER_25_81
*624 FILLER_25_9
*625 FILLER_25_93
*626 FILLER_26_109
*627 FILLER_26_121
*628 FILLER_26_133
*629 FILLER_26_139
*630 FILLER_26_141
*631 FILLER_26_153
*632 FILLER_26_165
*633 FILLER_26_177
*634 FILLER_26_189
*635 FILLER_26_195
*636 FILLER_26_197
*637 FILLER_26_209
*638 FILLER_26_21
*639 FILLER_26_221
*640 FILLER_26_233
*641 FILLER_26_245
*642 FILLER_26_251
*643 FILLER_26_253
*644 FILLER_26_265
*645 FILLER_26_27
*646 FILLER_26_277
*647 FILLER_26_289
*648 FILLER_26_29
*649 FILLER_26_297
*650 FILLER_26_3
*651 FILLER_26_41
*652 FILLER_26_53
*653 FILLER_26_65
*654 FILLER_26_77
*655 FILLER_26_83
*656 FILLER_26_85
*657 FILLER_26_97
*658 FILLER_27_105
*659 FILLER_27_111
*660 FILLER_27_113
*661 FILLER_27_12
*662 FILLER_27_125
*663 FILLER_27_137
*664 FILLER_27_149
*665 FILLER_27_161
*666 FILLER_27_167
*667 FILLER_27_169
*668 FILLER_27_181
*669 FILLER_27_193
*670 FILLER_27_20
*671 FILLER_27_205
*672 FILLER_27_217
*673 FILLER_27_223
*674 FILLER_27_225
*675 FILLER_27_237
*676 FILLER_27_249
*677 FILLER_27_261
*678 FILLER_27_273
*679 FILLER_27_279
*680 FILLER_27_281
*681 FILLER_27_293
*682 FILLER_27_3
*683 FILLER_27_32
*684 FILLER_27_44
*685 FILLER_27_57
*686 FILLER_27_69
*687 FILLER_27_7
*688 FILLER_27_81
*689 FILLER_27_93
*690 FILLER_28_109
*691 FILLER_28_121
*692 FILLER_28_133
*693 FILLER_28_139
*694 FILLER_28_141
*695 FILLER_28_153
*696 FILLER_28_165
*697 FILLER_28_17
*698 FILLER_28_177
*699 FILLER_28_189
*700 FILLER_28_195
*701 FILLER_28_197
*702 FILLER_28_209
*703 FILLER_28_221
*704 FILLER_28_233
*705 FILLER_28_245
*706 FILLER_28_25
*707 FILLER_28_251
*708 FILLER_28_253
*709 FILLER_28_265
*710 FILLER_28_277
*711 FILLER_28_289
*712 FILLER_28_29
*713 FILLER_28_297
*714 FILLER_28_3
*715 FILLER_28_41
*716 FILLER_28_53
*717 FILLER_28_65
*718 FILLER_28_77
*719 FILLER_28_83
*720 FILLER_28_85
*721 FILLER_28_9
*722 FILLER_28_97
*723 FILLER_29_105
*724 FILLER_29_111
*725 FILLER_29_113
*726 FILLER_29_125
*727 FILLER_29_137
*728 FILLER_29_149
*729 FILLER_29_161
*730 FILLER_29_167
*731 FILLER_29_169
*732 FILLER_29_181
*733 FILLER_29_19
*734 FILLER_29_193
*735 FILLER_29_205
*736 FILLER_29_217
*737 FILLER_29_223
*738 FILLER_29_225
*739 FILLER_29_237
*740 FILLER_29_249
*741 FILLER_29_261
*742 FILLER_29_273
*743 FILLER_29_279
*744 FILLER_29_281
*745 FILLER_29_293
*746 FILLER_29_31
*747 FILLER_29_43
*748 FILLER_29_55
*749 FILLER_29_57
*750 FILLER_29_69
*751 FILLER_29_81
*752 FILLER_29_93
*753 FILLER_2_109
*754 FILLER_2_121
*755 FILLER_2_133
*756 FILLER_2_139
*757 FILLER_2_141
*758 FILLER_2_153
*759 FILLER_2_165
*760 FILLER_2_177
*761 FILLER_2_189
*762 FILLER_2_195
*763 FILLER_2_197
*764 FILLER_2_209
*765 FILLER_2_221
*766 FILLER_2_233
*767 FILLER_2_24
*768 FILLER_2_245
*769 FILLER_2_251
*770 FILLER_2_253
*771 FILLER_2_265
*772 FILLER_2_277
*773 FILLER_2_289
*774 FILLER_2_29
*775 FILLER_2_297
*776 FILLER_2_3
*777 FILLER_2_41
*778 FILLER_2_53
*779 FILLER_2_65
*780 FILLER_2_7
*781 FILLER_2_77
*782 FILLER_2_83
*783 FILLER_2_85
*784 FILLER_2_97
*785 FILLER_30_109
*786 FILLER_30_121
*787 FILLER_30_133
*788 FILLER_30_139
*789 FILLER_30_141
*790 FILLER_30_15
*791 FILLER_30_153
*792 FILLER_30_165
*793 FILLER_30_177
*794 FILLER_30_189
*795 FILLER_30_195
*796 FILLER_30_197
*797 FILLER_30_209
*798 FILLER_30_221
*799 FILLER_30_233
*800 FILLER_30_245
*801 FILLER_30_251
*802 FILLER_30_253
*803 FILLER_30_265
*804 FILLER_30_27
*805 FILLER_30_277
*806 FILLER_30_289
*807 FILLER_30_29
*808 FILLER_30_297
*809 FILLER_30_3
*810 FILLER_30_41
*811 FILLER_30_53
*812 FILLER_30_65
*813 FILLER_30_77
*814 FILLER_30_83
*815 FILLER_30_85
*816 FILLER_30_97
*817 FILLER_31_105
*818 FILLER_31_111
*819 FILLER_31_113
*820 FILLER_31_125
*821 FILLER_31_137
*822 FILLER_31_149
*823 FILLER_31_161
*824 FILLER_31_167
*825 FILLER_31_169
*826 FILLER_31_18
*827 FILLER_31_181
*828 FILLER_31_193
*829 FILLER_31_205
*830 FILLER_31_217
*831 FILLER_31_223
*832 FILLER_31_225
*833 FILLER_31_237
*834 FILLER_31_249
*835 FILLER_31_261
*836 FILLER_31_273
*837 FILLER_31_279
*838 FILLER_31_281
*839 FILLER_31_293
*840 FILLER_31_30
*841 FILLER_31_42
*842 FILLER_31_54
*843 FILLER_31_57
*844 FILLER_31_6
*845 FILLER_31_69
*846 FILLER_31_81
*847 FILLER_31_93
*848 FILLER_32_109
*849 FILLER_32_121
*850 FILLER_32_133
*851 FILLER_32_139
*852 FILLER_32_141
*853 FILLER_32_15
*854 FILLER_32_153
*855 FILLER_32_165
*856 FILLER_32_177
*857 FILLER_32_189
*858 FILLER_32_195
*859 FILLER_32_197
*860 FILLER_32_209
*861 FILLER_32_221
*862 FILLER_32_233
*863 FILLER_32_245
*864 FILLER_32_251
*865 FILLER_32_253
*866 FILLER_32_265
*867 FILLER_32_27
*868 FILLER_32_277
*869 FILLER_32_289
*870 FILLER_32_29
*871 FILLER_32_297
*872 FILLER_32_3
*873 FILLER_32_41
*874 FILLER_32_53
*875 FILLER_32_65
*876 FILLER_32_77
*877 FILLER_32_83
*878 FILLER_32_85
*879 FILLER_32_97
*880 FILLER_33_105
*881 FILLER_33_111
*882 FILLER_33_113
*883 FILLER_33_125
*884 FILLER_33_137
*885 FILLER_33_149
*886 FILLER_33_15
*887 FILLER_33_161
*888 FILLER_33_167
*889 FILLER_33_169
*890 FILLER_33_181
*891 FILLER_33_193
*892 FILLER_33_205
*893 FILLER_33_217
*894 FILLER_33_223
*895 FILLER_33_225
*896 FILLER_33_237
*897 FILLER_33_249
*898 FILLER_33_261
*899 FILLER_33_27
*900 FILLER_33_273
*901 FILLER_33_279
*902 FILLER_33_281
*903 FILLER_33_293
*904 FILLER_33_3
*905 FILLER_33_39
*906 FILLER_33_51
*907 FILLER_33_55
*908 FILLER_33_57
*909 FILLER_33_69
*910 FILLER_33_81
*911 FILLER_33_93
*912 FILLER_34_109
*913 FILLER_34_121
*914 FILLER_34_133
*915 FILLER_34_139
*916 FILLER_34_141
*917 FILLER_34_15
*918 FILLER_34_153
*919 FILLER_34_165
*920 FILLER_34_177
*921 FILLER_34_189
*922 FILLER_34_195
*923 FILLER_34_197
*924 FILLER_34_209
*925 FILLER_34_221
*926 FILLER_34_233
*927 FILLER_34_245
*928 FILLER_34_251
*929 FILLER_34_253
*930 FILLER_34_265
*931 FILLER_34_27
*932 FILLER_34_277
*933 FILLER_34_289
*934 FILLER_34_29
*935 FILLER_34_297
*936 FILLER_34_3
*937 FILLER_34_41
*938 FILLER_34_53
*939 FILLER_34_65
*940 FILLER_34_77
*941 FILLER_34_83
*942 FILLER_34_85
*943 FILLER_34_97
*944 FILLER_35_105
*945 FILLER_35_111
*946 FILLER_35_113
*947 FILLER_35_125
*948 FILLER_35_137
*949 FILLER_35_149
*950 FILLER_35_161
*951 FILLER_35_167
*952 FILLER_35_169
*953 FILLER_35_18
*954 FILLER_35_181
*955 FILLER_35_193
*956 FILLER_35_205
*957 FILLER_35_217
*958 FILLER_35_223
*959 FILLER_35_225
*960 FILLER_35_237
*961 FILLER_35_249
*962 FILLER_35_261
*963 FILLER_35_273
*964 FILLER_35_279
*965 FILLER_35_281
*966 FILLER_35_293
*967 FILLER_35_30
*968 FILLER_35_42
*969 FILLER_35_54
*970 FILLER_35_57
*971 FILLER_35_6
*972 FILLER_35_69
*973 FILLER_35_81
*974 FILLER_35_93
*975 FILLER_36_109
*976 FILLER_36_121
*977 FILLER_36_133
*978 FILLER_36_139
*979 FILLER_36_141
*980 FILLER_36_15
*981 FILLER_36_153
*982 FILLER_36_165
*983 FILLER_36_177
*984 FILLER_36_189
*985 FILLER_36_195
*986 FILLER_36_197
*987 FILLER_36_209
*988 FILLER_36_221
*989 FILLER_36_233
*990 FILLER_36_245
*991 FILLER_36_251
*992 FILLER_36_253
*993 FILLER_36_265
*994 FILLER_36_27
*995 FILLER_36_277
*996 FILLER_36_289
*997 FILLER_36_29
*998 FILLER_36_297
*999 FILLER_36_3
*1000 FILLER_36_41
*1001 FILLER_36_53
*1002 FILLER_36_65
*1003 FILLER_36_77
*1004 FILLER_36_83
*1005 FILLER_36_85
*1006 FILLER_36_97
*1007 FILLER_37_105
*1008 FILLER_37_111
*1009 FILLER_37_113
*1010 FILLER_37_125
*1011 FILLER_37_137
*1012 FILLER_37_149
*1013 FILLER_37_15
*1014 FILLER_37_161
*1015 FILLER_37_167
*1016 FILLER_37_169
*1017 FILLER_37_181
*1018 FILLER_37_193
*1019 FILLER_37_205
*1020 FILLER_37_217
*1021 FILLER_37_223
*1022 FILLER_37_225
*1023 FILLER_37_237
*1024 FILLER_37_249
*1025 FILLER_37_261
*1026 FILLER_37_27
*1027 FILLER_37_273
*1028 FILLER_37_279
*1029 FILLER_37_281
*1030 FILLER_37_293
*1031 FILLER_37_3
*1032 FILLER_37_39
*1033 FILLER_37_51
*1034 FILLER_37_55
*1035 FILLER_37_57
*1036 FILLER_37_69
*1037 FILLER_37_81
*1038 FILLER_37_93
*1039 FILLER_38_109
*1040 FILLER_38_121
*1041 FILLER_38_133
*1042 FILLER_38_139
*1043 FILLER_38_141
*1044 FILLER_38_15
*1045 FILLER_38_153
*1046 FILLER_38_165
*1047 FILLER_38_177
*1048 FILLER_38_189
*1049 FILLER_38_195
*1050 FILLER_38_197
*1051 FILLER_38_209
*1052 FILLER_38_221
*1053 FILLER_38_233
*1054 FILLER_38_245
*1055 FILLER_38_251
*1056 FILLER_38_253
*1057 FILLER_38_265
*1058 FILLER_38_27
*1059 FILLER_38_277
*1060 FILLER_38_289
*1061 FILLER_38_29
*1062 FILLER_38_297
*1063 FILLER_38_3
*1064 FILLER_38_41
*1065 FILLER_38_53
*1066 FILLER_38_65
*1067 FILLER_38_77
*1068 FILLER_38_83
*1069 FILLER_38_85
*1070 FILLER_38_97
*1071 FILLER_39_105
*1072 FILLER_39_111
*1073 FILLER_39_113
*1074 FILLER_39_125
*1075 FILLER_39_137
*1076 FILLER_39_149
*1077 FILLER_39_161
*1078 FILLER_39_167
*1079 FILLER_39_169
*1080 FILLER_39_18
*1081 FILLER_39_181
*1082 FILLER_39_193
*1083 FILLER_39_205
*1084 FILLER_39_217
*1085 FILLER_39_223
*1086 FILLER_39_225
*1087 FILLER_39_237
*1088 FILLER_39_249
*1089 FILLER_39_261
*1090 FILLER_39_273
*1091 FILLER_39_279
*1092 FILLER_39_281
*1093 FILLER_39_293
*1094 FILLER_39_30
*1095 FILLER_39_42
*1096 FILLER_39_54
*1097 FILLER_39_57
*1098 FILLER_39_6
*1099 FILLER_39_69
*1100 FILLER_39_81
*1101 FILLER_39_93
*1102 FILLER_3_105
*1103 FILLER_3_111
*1104 FILLER_3_113
*1105 FILLER_3_125
*1106 FILLER_3_137
*1107 FILLER_3_149
*1108 FILLER_3_16
*1109 FILLER_3_161
*1110 FILLER_3_167
*1111 FILLER_3_169
*1112 FILLER_3_181
*1113 FILLER_3_193
*1114 FILLER_3_205
*1115 FILLER_3_217
*1116 FILLER_3_223
*1117 FILLER_3_225
*1118 FILLER_3_237
*1119 FILLER_3_249
*1120 FILLER_3_261
*1121 FILLER_3_273
*1122 FILLER_3_279
*1123 FILLER_3_28
*1124 FILLER_3_281
*1125 FILLER_3_293
*1126 FILLER_3_3
*1127 FILLER_3_40
*1128 FILLER_3_52
*1129 FILLER_3_57
*1130 FILLER_3_69
*1131 FILLER_3_8
*1132 FILLER_3_81
*1133 FILLER_3_93
*1134 FILLER_40_109
*1135 FILLER_40_121
*1136 FILLER_40_133
*1137 FILLER_40_139
*1138 FILLER_40_141
*1139 FILLER_40_15
*1140 FILLER_40_153
*1141 FILLER_40_165
*1142 FILLER_40_177
*1143 FILLER_40_189
*1144 FILLER_40_195
*1145 FILLER_40_197
*1146 FILLER_40_209
*1147 FILLER_40_221
*1148 FILLER_40_233
*1149 FILLER_40_245
*1150 FILLER_40_251
*1151 FILLER_40_253
*1152 FILLER_40_265
*1153 FILLER_40_27
*1154 FILLER_40_277
*1155 FILLER_40_289
*1156 FILLER_40_29
*1157 FILLER_40_297
*1158 FILLER_40_3
*1159 FILLER_40_41
*1160 FILLER_40_53
*1161 FILLER_40_65
*1162 FILLER_40_77
*1163 FILLER_40_83
*1164 FILLER_40_85
*1165 FILLER_40_97
*1166 FILLER_41_105
*1167 FILLER_41_111
*1168 FILLER_41_113
*1169 FILLER_41_125
*1170 FILLER_41_137
*1171 FILLER_41_149
*1172 FILLER_41_15
*1173 FILLER_41_161
*1174 FILLER_41_167
*1175 FILLER_41_169
*1176 FILLER_41_181
*1177 FILLER_41_193
*1178 FILLER_41_205
*1179 FILLER_41_217
*1180 FILLER_41_223
*1181 FILLER_41_225
*1182 FILLER_41_237
*1183 FILLER_41_249
*1184 FILLER_41_261
*1185 FILLER_41_27
*1186 FILLER_41_273
*1187 FILLER_41_279
*1188 FILLER_41_281
*1189 FILLER_41_293
*1190 FILLER_41_3
*1191 FILLER_41_39
*1192 FILLER_41_51
*1193 FILLER_41_55
*1194 FILLER_41_57
*1195 FILLER_41_69
*1196 FILLER_41_81
*1197 FILLER_41_93
*1198 FILLER_42_109
*1199 FILLER_42_121
*1200 FILLER_42_133
*1201 FILLER_42_139
*1202 FILLER_42_141
*1203 FILLER_42_153
*1204 FILLER_42_165
*1205 FILLER_42_177
*1206 FILLER_42_18
*1207 FILLER_42_189
*1208 FILLER_42_195
*1209 FILLER_42_197
*1210 FILLER_42_209
*1211 FILLER_42_221
*1212 FILLER_42_233
*1213 FILLER_42_245
*1214 FILLER_42_251
*1215 FILLER_42_253
*1216 FILLER_42_26
*1217 FILLER_42_265
*1218 FILLER_42_277
*1219 FILLER_42_289
*1220 FILLER_42_29
*1221 FILLER_42_297
*1222 FILLER_42_41
*1223 FILLER_42_53
*1224 FILLER_42_6
*1225 FILLER_42_65
*1226 FILLER_42_77
*1227 FILLER_42_83
*1228 FILLER_42_85
*1229 FILLER_42_97
*1230 FILLER_43_105
*1231 FILLER_43_111
*1232 FILLER_43_113
*1233 FILLER_43_125
*1234 FILLER_43_137
*1235 FILLER_43_149
*1236 FILLER_43_15
*1237 FILLER_43_161
*1238 FILLER_43_167
*1239 FILLER_43_169
*1240 FILLER_43_181
*1241 FILLER_43_193
*1242 FILLER_43_205
*1243 FILLER_43_217
*1244 FILLER_43_223
*1245 FILLER_43_225
*1246 FILLER_43_237
*1247 FILLER_43_249
*1248 FILLER_43_261
*1249 FILLER_43_27
*1250 FILLER_43_273
*1251 FILLER_43_279
*1252 FILLER_43_281
*1253 FILLER_43_293
*1254 FILLER_43_3
*1255 FILLER_43_39
*1256 FILLER_43_51
*1257 FILLER_43_55
*1258 FILLER_43_57
*1259 FILLER_43_69
*1260 FILLER_43_81
*1261 FILLER_43_93
*1262 FILLER_44_109
*1263 FILLER_44_121
*1264 FILLER_44_133
*1265 FILLER_44_139
*1266 FILLER_44_141
*1267 FILLER_44_15
*1268 FILLER_44_153
*1269 FILLER_44_165
*1270 FILLER_44_177
*1271 FILLER_44_189
*1272 FILLER_44_195
*1273 FILLER_44_197
*1274 FILLER_44_209
*1275 FILLER_44_221
*1276 FILLER_44_233
*1277 FILLER_44_245
*1278 FILLER_44_251
*1279 FILLER_44_253
*1280 FILLER_44_265
*1281 FILLER_44_27
*1282 FILLER_44_277
*1283 FILLER_44_289
*1284 FILLER_44_29
*1285 FILLER_44_297
*1286 FILLER_44_3
*1287 FILLER_44_41
*1288 FILLER_44_53
*1289 FILLER_44_65
*1290 FILLER_44_77
*1291 FILLER_44_83
*1292 FILLER_44_85
*1293 FILLER_44_97
*1294 FILLER_45_105
*1295 FILLER_45_111
*1296 FILLER_45_113
*1297 FILLER_45_125
*1298 FILLER_45_137
*1299 FILLER_45_149
*1300 FILLER_45_15
*1301 FILLER_45_161
*1302 FILLER_45_167
*1303 FILLER_45_169
*1304 FILLER_45_181
*1305 FILLER_45_193
*1306 FILLER_45_205
*1307 FILLER_45_217
*1308 FILLER_45_223
*1309 FILLER_45_225
*1310 FILLER_45_237
*1311 FILLER_45_249
*1312 FILLER_45_261
*1313 FILLER_45_27
*1314 FILLER_45_273
*1315 FILLER_45_279
*1316 FILLER_45_281
*1317 FILLER_45_293
*1318 FILLER_45_3
*1319 FILLER_45_39
*1320 FILLER_45_51
*1321 FILLER_45_55
*1322 FILLER_45_57
*1323 FILLER_45_69
*1324 FILLER_45_81
*1325 FILLER_45_93
*1326 FILLER_46_109
*1327 FILLER_46_121
*1328 FILLER_46_133
*1329 FILLER_46_139
*1330 FILLER_46_141
*1331 FILLER_46_153
*1332 FILLER_46_165
*1333 FILLER_46_177
*1334 FILLER_46_18
*1335 FILLER_46_189
*1336 FILLER_46_195
*1337 FILLER_46_197
*1338 FILLER_46_209
*1339 FILLER_46_221
*1340 FILLER_46_233
*1341 FILLER_46_245
*1342 FILLER_46_251
*1343 FILLER_46_253
*1344 FILLER_46_26
*1345 FILLER_46_265
*1346 FILLER_46_277
*1347 FILLER_46_289
*1348 FILLER_46_29
*1349 FILLER_46_297
*1350 FILLER_46_41
*1351 FILLER_46_53
*1352 FILLER_46_6
*1353 FILLER_46_65
*1354 FILLER_46_77
*1355 FILLER_46_83
*1356 FILLER_46_85
*1357 FILLER_46_97
*1358 FILLER_47_105
*1359 FILLER_47_111
*1360 FILLER_47_113
*1361 FILLER_47_125
*1362 FILLER_47_137
*1363 FILLER_47_149
*1364 FILLER_47_15
*1365 FILLER_47_161
*1366 FILLER_47_167
*1367 FILLER_47_169
*1368 FILLER_47_181
*1369 FILLER_47_193
*1370 FILLER_47_205
*1371 FILLER_47_217
*1372 FILLER_47_223
*1373 FILLER_47_225
*1374 FILLER_47_237
*1375 FILLER_47_249
*1376 FILLER_47_261
*1377 FILLER_47_27
*1378 FILLER_47_273
*1379 FILLER_47_279
*1380 FILLER_47_281
*1381 FILLER_47_293
*1382 FILLER_47_3
*1383 FILLER_47_39
*1384 FILLER_47_51
*1385 FILLER_47_55
*1386 FILLER_47_57
*1387 FILLER_47_69
*1388 FILLER_47_81
*1389 FILLER_47_93
*1390 FILLER_48_109
*1391 FILLER_48_121
*1392 FILLER_48_133
*1393 FILLER_48_139
*1394 FILLER_48_141
*1395 FILLER_48_15
*1396 FILLER_48_153
*1397 FILLER_48_165
*1398 FILLER_48_177
*1399 FILLER_48_189
*1400 FILLER_48_195
*1401 FILLER_48_197
*1402 FILLER_48_209
*1403 FILLER_48_221
*1404 FILLER_48_233
*1405 FILLER_48_245
*1406 FILLER_48_251
*1407 FILLER_48_253
*1408 FILLER_48_265
*1409 FILLER_48_27
*1410 FILLER_48_277
*1411 FILLER_48_289
*1412 FILLER_48_29
*1413 FILLER_48_297
*1414 FILLER_48_3
*1415 FILLER_48_41
*1416 FILLER_48_53
*1417 FILLER_48_65
*1418 FILLER_48_77
*1419 FILLER_48_83
*1420 FILLER_48_85
*1421 FILLER_48_97
*1422 FILLER_49_105
*1423 FILLER_49_111
*1424 FILLER_49_113
*1425 FILLER_49_125
*1426 FILLER_49_137
*1427 FILLER_49_149
*1428 FILLER_49_15
*1429 FILLER_49_161
*1430 FILLER_49_167
*1431 FILLER_49_169
*1432 FILLER_49_181
*1433 FILLER_49_193
*1434 FILLER_49_205
*1435 FILLER_49_217
*1436 FILLER_49_223
*1437 FILLER_49_225
*1438 FILLER_49_237
*1439 FILLER_49_249
*1440 FILLER_49_261
*1441 FILLER_49_27
*1442 FILLER_49_273
*1443 FILLER_49_279
*1444 FILLER_49_281
*1445 FILLER_49_293
*1446 FILLER_49_3
*1447 FILLER_49_39
*1448 FILLER_49_51
*1449 FILLER_49_55
*1450 FILLER_49_57
*1451 FILLER_49_69
*1452 FILLER_49_81
*1453 FILLER_49_93
*1454 FILLER_4_109
*1455 FILLER_4_121
*1456 FILLER_4_133
*1457 FILLER_4_139
*1458 FILLER_4_141
*1459 FILLER_4_153
*1460 FILLER_4_165
*1461 FILLER_4_177
*1462 FILLER_4_189
*1463 FILLER_4_195
*1464 FILLER_4_197
*1465 FILLER_4_209
*1466 FILLER_4_221
*1467 FILLER_4_233
*1468 FILLER_4_24
*1469 FILLER_4_245
*1470 FILLER_4_251
*1471 FILLER_4_253
*1472 FILLER_4_265
*1473 FILLER_4_277
*1474 FILLER_4_289
*1475 FILLER_4_29
*1476 FILLER_4_297
*1477 FILLER_4_3
*1478 FILLER_4_41
*1479 FILLER_4_53
*1480 FILLER_4_65
*1481 FILLER_4_7
*1482 FILLER_4_77
*1483 FILLER_4_83
*1484 FILLER_4_85
*1485 FILLER_4_97
*1486 FILLER_50_109
*1487 FILLER_50_121
*1488 FILLER_50_133
*1489 FILLER_50_139
*1490 FILLER_50_141
*1491 FILLER_50_153
*1492 FILLER_50_165
*1493 FILLER_50_177
*1494 FILLER_50_18
*1495 FILLER_50_189
*1496 FILLER_50_195
*1497 FILLER_50_197
*1498 FILLER_50_209
*1499 FILLER_50_221
*1500 FILLER_50_233
*1501 FILLER_50_245
*1502 FILLER_50_251
*1503 FILLER_50_253
*1504 FILLER_50_26
*1505 FILLER_50_265
*1506 FILLER_50_277
*1507 FILLER_50_289
*1508 FILLER_50_29
*1509 FILLER_50_297
*1510 FILLER_50_41
*1511 FILLER_50_53
*1512 FILLER_50_6
*1513 FILLER_50_65
*1514 FILLER_50_77
*1515 FILLER_50_83
*1516 FILLER_50_85
*1517 FILLER_50_97
*1518 FILLER_51_105
*1519 FILLER_51_111
*1520 FILLER_51_113
*1521 FILLER_51_125
*1522 FILLER_51_137
*1523 FILLER_51_149
*1524 FILLER_51_15
*1525 FILLER_51_161
*1526 FILLER_51_167
*1527 FILLER_51_169
*1528 FILLER_51_181
*1529 FILLER_51_193
*1530 FILLER_51_205
*1531 FILLER_51_217
*1532 FILLER_51_223
*1533 FILLER_51_225
*1534 FILLER_51_237
*1535 FILLER_51_249
*1536 FILLER_51_261
*1537 FILLER_51_27
*1538 FILLER_51_273
*1539 FILLER_51_279
*1540 FILLER_51_281
*1541 FILLER_51_293
*1542 FILLER_51_3
*1543 FILLER_51_39
*1544 FILLER_51_51
*1545 FILLER_51_55
*1546 FILLER_51_57
*1547 FILLER_51_69
*1548 FILLER_51_81
*1549 FILLER_51_93
*1550 FILLER_52_109
*1551 FILLER_52_121
*1552 FILLER_52_133
*1553 FILLER_52_139
*1554 FILLER_52_141
*1555 FILLER_52_15
*1556 FILLER_52_153
*1557 FILLER_52_165
*1558 FILLER_52_177
*1559 FILLER_52_189
*1560 FILLER_52_195
*1561 FILLER_52_197
*1562 FILLER_52_209
*1563 FILLER_52_221
*1564 FILLER_52_233
*1565 FILLER_52_245
*1566 FILLER_52_251
*1567 FILLER_52_253
*1568 FILLER_52_265
*1569 FILLER_52_27
*1570 FILLER_52_277
*1571 FILLER_52_289
*1572 FILLER_52_29
*1573 FILLER_52_297
*1574 FILLER_52_3
*1575 FILLER_52_41
*1576 FILLER_52_53
*1577 FILLER_52_65
*1578 FILLER_52_77
*1579 FILLER_52_83
*1580 FILLER_52_85
*1581 FILLER_52_97
*1582 FILLER_53_105
*1583 FILLER_53_111