*SPEF "ieee 1481-1999"
*DESIGN "user_module_nickoe"
*DATE "11:11:11 Fri 11 11, 1111"
*VENDOR "OpenRCX"
*PROGRAM "Parallel Extraction"
*VERSION "1.0"
*DESIGN_FLOW "NAME_SCOPE LOCAL" "PIN_CAP NONE"
*DIVIDER /
*DELIMITER :
*BUS_DELIMITER []
*T_UNIT 1 NS
*C_UNIT 1 PF
*R_UNIT 1 OHM
*L_UNIT 1 HENRY

*NAME_MAP
*1 io_in[0]
*2 io_in[1]
*3 io_in[2]
*4 io_in[3]
*5 io_in[4]
*6 io_in[5]
*7 io_in[6]
*8 io_in[7]
*9 io_out[0]
*10 io_out[1]
*11 io_out[2]
*12 io_out[3]
*13 io_out[4]
*14 io_out[5]
*15 io_out[6]
*16 io_out[7]
*19 _000_
*20 _001_
*21 _002_
*22 _003_
*23 _004_
*24 _032_
*25 _033_
*26 _034_
*27 _035_
*28 _036_
*29 _037_
*30 _038_
*31 _039_
*32 _040_
*33 _041_
*34 _042_
*35 _043_
*36 _044_
*37 _045_
*38 _046_
*39 _047_
*40 _048_
*41 _049_
*42 _050_
*43 _051_
*44 _052_
*45 _053_
*46 _054_
*47 _055_
*48 _056_
*49 _057_
*50 _058_
*51 _059_
*52 _060_
*53 _061_
*54 _062_
*55 _063_
*56 _064_
*57 _065_
*58 _066_
*59 _067_
*60 _068_
*61 _069_
*62 _070_
*63 _071_
*64 _072_
*65 _073_
*66 _074_
*67 _075_
*68 _076_
*69 _077_
*70 _078_
*71 _079_
*72 _080_
*73 _081_
*74 _082_
*75 _083_
*76 _084_
*77 _085_
*78 _086_
*79 _087_
*80 _088_
*81 _089_
*82 _090_
*83 _091_
*84 _092_
*85 _093_
*86 _094_
*87 _095_
*88 _096_
*89 _097_
*90 _098_
*91 _099_
*92 _100_
*93 _101_
*94 _102_
*95 _103_
*96 _104_
*97 _105_
*98 _106_
*99 _107_
*100 _108_
*101 _109_
*102 _110_
*103 _111_
*104 _112_
*105 _113_
*106 _114_
*107 _115_
*108 _116_
*109 _117_
*110 _118_
*111 _119_
*112 _120_
*113 _121_
*114 _122_
*115 _123_
*116 _124_
*117 _125_
*118 _126_
*119 _127_
*120 _128_
*121 _129_
*122 _130_
*123 _131_
*124 _132_
*125 _133_
*126 _134_
*127 _135_
*128 _136_
*129 _137_
*130 _138_
*131 _139_
*132 _140_
*133 _141_
*134 _142_
*135 _143_
*136 _144_
*137 _145_
*138 _146_
*139 _147_
*140 chaser\[0\]
*141 chaser\[1\]
*142 chaser\[2\]
*143 chaser\[3\]
*144 chaser\[4\]
*145 chaser\[5\]
*146 chaser\[6\]
*147 chaser\[7\]
*148 clknet_0_io_in[0]
*149 clknet_3_0__leaf_io_in[0]
*150 clknet_3_1__leaf_io_in[0]
*151 clknet_3_2__leaf_io_in[0]
*152 clknet_3_3__leaf_io_in[0]
*153 clknet_3_4__leaf_io_in[0]
*154 clknet_3_5__leaf_io_in[0]
*155 clknet_3_6__leaf_io_in[0]
*156 clknet_3_7__leaf_io_in[0]
*157 count\[0\]
*158 count\[1\]
*159 count\[2\]
*160 count\[3\]
*161 count\[4\]
*162 count\[5\]
*163 count\[6\]
*164 count\[7\]
*165 count\[8\]
*166 count\[9\]
*167 counter\[0\]
*168 counter\[10\]
*169 counter\[11\]
*170 counter\[12\]
*171 counter\[13\]
*172 counter\[14\]
*173 counter\[15\]
*174 counter\[16\]
*175 counter\[17\]
*176 counter\[18\]
*177 counter\[19\]
*178 counter\[1\]
*179 counter\[20\]
*180 counter\[21\]
*181 counter\[22\]
*182 counter\[23\]
*183 counter\[24\]
*184 counter\[25\]
*185 counter\[26\]
*186 counter\[27\]
*187 counter\[28\]
*188 counter\[29\]
*189 counter\[2\]
*190 counter\[30\]
*191 counter\[31\]
*192 counter\[3\]
*193 counter\[4\]
*194 counter\[5\]
*195 counter\[6\]
*196 counter\[7\]
*197 counter\[8\]
*198 counter\[9\]
*199 int_rst
*200 net1
*201 net10
*202 net11
*203 net12
*204 net13
*205 net14
*206 net15
*207 net16
*208 net17
*209 net18
*210 net19
*211 net2
*212 net20
*213 net21
*214 net22
*215 net23
*216 net24
*217 net25
*218 net26
*219 net27
*220 net28
*221 net29
*222 net3
*223 net30
*224 net31
*225 net32
*226 net33
*227 net34
*228 net4
*229 net5
*230 net6
*231 net7
*232 net8
*233 net9
*234 pwm
*235 width\[0\]
*236 width\[1\]
*237 width\[2\]
*238 width\[3\]
*239 width\[4\]
*240 width\[5\]
*241 ANTENNA_0
*242 ANTENNA_1
*243 FILLER_0_101
*244 FILLER_0_109
*245 FILLER_0_129
*246 FILLER_0_137
*247 FILLER_0_141
*248 FILLER_0_153
*249 FILLER_0_165
*250 FILLER_0_169
*251 FILLER_0_181
*252 FILLER_0_193
*253 FILLER_0_197
*254 FILLER_0_209
*255 FILLER_0_221
*256 FILLER_0_225
*257 FILLER_0_237
*258 FILLER_0_24
*259 FILLER_0_249
*260 FILLER_0_253
*261 FILLER_0_265
*262 FILLER_0_277
*263 FILLER_0_281
*264 FILLER_0_293
*265 FILLER_0_3
*266 FILLER_0_32
*267 FILLER_0_52
*268 FILLER_0_60
*269 FILLER_0_7
*270 FILLER_0_80
*271 FILLER_10_106
*272 FILLER_10_118
*273 FILLER_10_130
*274 FILLER_10_138
*275 FILLER_10_141
*276 FILLER_10_153
*277 FILLER_10_165
*278 FILLER_10_177
*279 FILLER_10_189
*280 FILLER_10_195
*281 FILLER_10_197
*282 FILLER_10_209
*283 FILLER_10_221
*284 FILLER_10_233
*285 FILLER_10_24
*286 FILLER_10_245
*287 FILLER_10_251
*288 FILLER_10_253
*289 FILLER_10_265
*290 FILLER_10_277
*291 FILLER_10_289
*292 FILLER_10_297
*293 FILLER_10_3
*294 FILLER_10_32
*295 FILLER_10_56
*296 FILLER_10_7
*297 FILLER_10_80
*298 FILLER_10_85
*299 FILLER_10_89
*300 FILLER_11_108
*301 FILLER_11_113
*302 FILLER_11_12
*303 FILLER_11_125
*304 FILLER_11_137
*305 FILLER_11_149
*306 FILLER_11_161
*307 FILLER_11_167
*308 FILLER_11_169
*309 FILLER_11_181
*310 FILLER_11_193
*311 FILLER_11_205
*312 FILLER_11_217
*313 FILLER_11_223
*314 FILLER_11_225
*315 FILLER_11_237
*316 FILLER_11_249
*317 FILLER_11_261
*318 FILLER_11_273
*319 FILLER_11_279
*320 FILLER_11_281
*321 FILLER_11_293
*322 FILLER_11_3
*323 FILLER_11_36
*324 FILLER_11_48
*325 FILLER_11_57
*326 FILLER_11_81
*327 FILLER_11_89
*328 FILLER_12_121
*329 FILLER_12_131
*330 FILLER_12_139
*331 FILLER_12_141
*332 FILLER_12_153
*333 FILLER_12_165
*334 FILLER_12_177
*335 FILLER_12_189
*336 FILLER_12_195
*337 FILLER_12_197
*338 FILLER_12_20
*339 FILLER_12_209
*340 FILLER_12_221
*341 FILLER_12_233
*342 FILLER_12_245
*343 FILLER_12_251
*344 FILLER_12_253
*345 FILLER_12_265
*346 FILLER_12_277
*347 FILLER_12_289
*348 FILLER_12_29
*349 FILLER_12_297
*350 FILLER_12_3
*351 FILLER_12_33
*352 FILLER_12_37
*353 FILLER_12_65
*354 FILLER_12_77
*355 FILLER_12_83
*356 FILLER_12_85
*357 FILLER_12_97
*358 FILLER_13_110
*359 FILLER_13_113
*360 FILLER_13_125
*361 FILLER_13_137
*362 FILLER_13_149
*363 FILLER_13_161
*364 FILLER_13_167
*365 FILLER_13_169
*366 FILLER_13_181
*367 FILLER_13_193
*368 FILLER_13_20
*369 FILLER_13_205
*370 FILLER_13_217
*371 FILLER_13_223
*372 FILLER_13_225
*373 FILLER_13_237
*374 FILLER_13_249
*375 FILLER_13_261
*376 FILLER_13_273
*377 FILLER_13_279
*378 FILLER_13_281
*379 FILLER_13_293
*380 FILLER_13_3
*381 FILLER_13_40
*382 FILLER_13_47
*383 FILLER_13_55
*384 FILLER_13_57
*385 FILLER_13_69
*386 FILLER_13_86
*387 FILLER_13_98
*388 FILLER_14_109
*389 FILLER_14_121
*390 FILLER_14_133
*391 FILLER_14_139
*392 FILLER_14_141
*393 FILLER_14_153
*394 FILLER_14_165
*395 FILLER_14_177
*396 FILLER_14_189
*397 FILLER_14_195
*398 FILLER_14_197
*399 FILLER_14_209
*400 FILLER_14_21
*401 FILLER_14_221
*402 FILLER_14_233
*403 FILLER_14_245
*404 FILLER_14_251
*405 FILLER_14_253
*406 FILLER_14_265
*407 FILLER_14_27
*408 FILLER_14_277
*409 FILLER_14_289
*410 FILLER_14_297
*411 FILLER_14_3
*412 FILLER_14_32
*413 FILLER_14_39
*414 FILLER_14_51
*415 FILLER_14_70
*416 FILLER_14_82
*417 FILLER_14_85
*418 FILLER_14_97
*419 FILLER_15_108
*420 FILLER_15_113
*421 FILLER_15_125
*422 FILLER_15_137
*423 FILLER_15_149
*424 FILLER_15_157
*425 FILLER_15_165
*426 FILLER_15_169
*427 FILLER_15_181
*428 FILLER_15_193
*429 FILLER_15_205
*430 FILLER_15_217
*431 FILLER_15_223
*432 FILLER_15_225
*433 FILLER_15_23
*434 FILLER_15_237
*435 FILLER_15_249
*436 FILLER_15_261
*437 FILLER_15_273
*438 FILLER_15_279
*439 FILLER_15_281
*440 FILLER_15_293
*441 FILLER_15_3
*442 FILLER_15_30
*443 FILLER_15_52
*444 FILLER_15_57
*445 FILLER_15_79
*446 FILLER_15_91
*447 FILLER_16_109
*448 FILLER_16_129
*449 FILLER_16_137
*450 FILLER_16_141
*451 FILLER_16_153
*452 FILLER_16_165
*453 FILLER_16_177
*454 FILLER_16_189
*455 FILLER_16_195
*456 FILLER_16_197
*457 FILLER_16_209
*458 FILLER_16_221
*459 FILLER_16_233
*460 FILLER_16_24
*461 FILLER_16_245
*462 FILLER_16_251
*463 FILLER_16_253
*464 FILLER_16_265
*465 FILLER_16_277
*466 FILLER_16_289
*467 FILLER_16_29
*468 FILLER_16_297
*469 FILLER_16_3
*470 FILLER_16_33
*471 FILLER_16_40
*472 FILLER_16_60
*473 FILLER_16_7
*474 FILLER_16_80
*475 FILLER_16_85
*476 FILLER_17_111
*477 FILLER_17_113
*478 FILLER_17_117
*479 FILLER_17_124
*480 FILLER_17_136
*481 FILLER_17_148
*482 FILLER_17_16
*483 FILLER_17_160
*484 FILLER_17_169
*485 FILLER_17_181
*486 FILLER_17_193
*487 FILLER_17_205
*488 FILLER_17_217
*489 FILLER_17_223
*490 FILLER_17_225
*491 FILLER_17_23
*492 FILLER_17_237
*493 FILLER_17_249
*494 FILLER_17_261
*495 FILLER_17_273
*496 FILLER_17_279
*497 FILLER_17_281
*498 FILLER_17_293
*499 FILLER_17_3
*500 FILLER_17_47
*501 FILLER_17_55
*502 FILLER_17_60
*503 FILLER_17_66
*504 FILLER_17_70
*505 FILLER_17_79
*506 FILLER_17_9
*507 FILLER_17_99
*508 FILLER_18_10
*509 FILLER_18_105
*510 FILLER_18_117
*511 FILLER_18_129
*512 FILLER_18_137
*513 FILLER_18_141
*514 FILLER_18_153
*515 FILLER_18_165
*516 FILLER_18_177
*517 FILLER_18_189
*518 FILLER_18_195
*519 FILLER_18_197
*520 FILLER_18_209
*521 FILLER_18_22
*522 FILLER_18_221
*523 FILLER_18_233
*524 FILLER_18_245
*525 FILLER_18_251
*526 FILLER_18_253
*527 FILLER_18_265
*528 FILLER_18_277
*529 FILLER_18_289
*530 FILLER_18_297
*531 FILLER_18_3
*532 FILLER_18_32
*533 FILLER_18_36
*534 FILLER_18_41
*535 FILLER_18_48
*536 FILLER_18_56
*537 FILLER_18_61
*538 FILLER_18_73
*539 FILLER_18_81
*540 FILLER_18_85
*541 FILLER_18_89
*542 FILLER_18_93
*543 FILLER_19_101
*544 FILLER_19_109
*545 FILLER_19_119
*546 FILLER_19_131
*547 FILLER_19_143
*548 FILLER_19_155
*549 FILLER_19_167
*550 FILLER_19_169
*551 FILLER_19_181
*552 FILLER_19_19
*553 FILLER_19_193
*554 FILLER_19_205
*555 FILLER_19_217
*556 FILLER_19_223
*557 FILLER_19_225
*558 FILLER_19_237
*559 FILLER_19_249
*560 FILLER_19_261
*561 FILLER_19_273
*562 FILLER_19_279
*563 FILLER_19_281
*564 FILLER_19_293
*565 FILLER_19_3
*566 FILLER_19_32
*567 FILLER_19_43
*568 FILLER_19_52
*569 FILLER_19_62
*570 FILLER_19_70
*571 FILLER_19_75
*572 FILLER_19_8
*573 FILLER_19_87
*574 FILLER_19_94
*575 FILLER_1_108
*576 FILLER_1_12
*577 FILLER_1_129
*578 FILLER_1_149
*579 FILLER_1_161
*580 FILLER_1_167
*581 FILLER_1_169
*582 FILLER_1_181
*583 FILLER_1_193
*584 FILLER_1_205
*585 FILLER_1_217
*586 FILLER_1_223
*587 FILLER_1_225
*588 FILLER_1_237
*589 FILLER_1_249
*590 FILLER_1_261
*591 FILLER_1_273
*592 FILLER_1_279
*593 FILLER_1_281
*594 FILLER_1_293
*595 FILLER_1_3
*596 FILLER_1_32
*597 FILLER_1_52
*598 FILLER_1_57
*599 FILLER_1_77
*600 FILLER_1_89
*601 FILLER_20_105
*602 FILLER_20_117
*603 FILLER_20_129
*604 FILLER_20_137
*605 FILLER_20_14
*606 FILLER_20_141
*607 FILLER_20_153
*608 FILLER_20_165
*609 FILLER_20_177
*610 FILLER_20_189
*611 FILLER_20_195
*612 FILLER_20_197
*613 FILLER_20_209
*614 FILLER_20_221
*615 FILLER_20_233
*616 FILLER_20_24
*617 FILLER_20_245
*618 FILLER_20_251
*619 FILLER_20_253
*620 FILLER_20_265
*621 FILLER_20_277
*622 FILLER_20_289
*623 FILLER_20_29
*624 FILLER_20_297
*625 FILLER_20_40
*626 FILLER_20_46
*627 FILLER_20_53
*628 FILLER_20_6
*629 FILLER_20_61
*630 FILLER_20_69
*631 FILLER_20_81
*632 FILLER_20_85
*633 FILLER_20_91
*634 FILLER_20_98
*635 FILLER_21_108
*636 FILLER_21_118
*637 FILLER_21_130
*638 FILLER_21_142
*639 FILLER_21_154
*640 FILLER_21_16
*641 FILLER_21_166
*642 FILLER_21_169
*643 FILLER_21_181
*644 FILLER_21_193
*645 FILLER_21_205
*646 FILLER_21_217
*647 FILLER_21_22
*648 FILLER_21_223
*649 FILLER_21_225
*650 FILLER_21_237
*651 FILLER_21_249
*652 FILLER_21_261
*653 FILLER_21_273
*654 FILLER_21_279
*655 FILLER_21_281
*656 FILLER_21_293
*657 FILLER_21_3
*658 FILLER_21_31
*659 FILLER_21_38
*660 FILLER_21_52
*661 FILLER_21_60
*662 FILLER_21_72
*663 FILLER_21_84
*664 FILLER_21_9
*665 FILLER_21_96
*666 FILLER_22_105
*667 FILLER_22_112
*668 FILLER_22_124
*669 FILLER_22_136
*670 FILLER_22_141
*671 FILLER_22_153
*672 FILLER_22_157
*673 FILLER_22_169
*674 FILLER_22_181
*675 FILLER_22_193
*676 FILLER_22_197
*677 FILLER_22_209
*678 FILLER_22_221
*679 FILLER_22_233
*680 FILLER_22_24
*681 FILLER_22_245
*682 FILLER_22_251
*683 FILLER_22_253
*684 FILLER_22_265
*685 FILLER_22_277
*686 FILLER_22_289
*687 FILLER_22_297
*688 FILLER_22_3
*689 FILLER_22_34
*690 FILLER_22_42
*691 FILLER_22_51
*692 FILLER_22_63
*693 FILLER_22_71
*694 FILLER_22_83
*695 FILLER_22_85
*696 FILLER_22_9
*697 FILLER_22_91
*698 FILLER_22_97
*699 FILLER_23_109
*700 FILLER_23_113
*701 FILLER_23_125
*702 FILLER_23_137
*703 FILLER_23_149
*704 FILLER_23_15
*705 FILLER_23_161
*706 FILLER_23_167
*707 FILLER_23_172
*708 FILLER_23_184
*709 FILLER_23_196
*710 FILLER_23_208
*711 FILLER_23_22
*712 FILLER_23_220
*713 FILLER_23_225
*714 FILLER_23_237
*715 FILLER_23_249
*716 FILLER_23_261
*717 FILLER_23_273
*718 FILLER_23_279
*719 FILLER_23_281
*720 FILLER_23_293
*721 FILLER_23_3
*722 FILLER_23_30
*723 FILLER_23_37
*724 FILLER_23_44
*725 FILLER_23_57
*726 FILLER_23_69
*727 FILLER_23_81
*728 FILLER_23_93
*729 FILLER_23_97
*730 FILLER_24_102
*731 FILLER_24_114
*732 FILLER_24_126
*733 FILLER_24_138
*734 FILLER_24_141
*735 FILLER_24_153
*736 FILLER_24_165
*737 FILLER_24_17
*738 FILLER_24_177
*739 FILLER_24_189
*740 FILLER_24_195
*741 FILLER_24_197
*742 FILLER_24_209
*743 FILLER_24_221
*744 FILLER_24_233
*745 FILLER_24_24
*746 FILLER_24_245
*747 FILLER_24_251
*748 FILLER_24_253
*749 FILLER_24_265
*750 FILLER_24_277
*751 FILLER_24_289
*752 FILLER_24_297
*753 FILLER_24_32
*754 FILLER_24_46
*755 FILLER_24_6
*756 FILLER_24_61
*757 FILLER_24_73
*758 FILLER_24_81
*759 FILLER_24_90
*760 FILLER_25_111
*761 FILLER_25_113
*762 FILLER_25_125
*763 FILLER_25_137
*764 FILLER_25_149
*765 FILLER_25_161
*766 FILLER_25_167
*767 FILLER_25_169
*768 FILLER_25_181
*769 FILLER_25_193
*770 FILLER_25_205
*771 FILLER_25_217
*772 FILLER_25_22
*773 FILLER_25_223
*774 FILLER_25_225
*775 FILLER_25_237
*776 FILLER_25_249
*777 FILLER_25_261
*778 FILLER_25_273
*779 FILLER_25_279
*780 FILLER_25_281
*781 FILLER_25_293
*782 FILLER_25_3
*783 FILLER_25_34
*784 FILLER_25_42
*785 FILLER_25_48
*786 FILLER_25_57
*787 FILLER_25_64
*788 FILLER_25_75
*789 FILLER_25_87
*790 FILLER_25_9
*791 FILLER_25_99
*792 FILLER_26_102
*793 FILLER_26_114
*794 FILLER_26_126
*795 FILLER_26_138
*796 FILLER_26_141
*797 FILLER_26_153
*798 FILLER_26_165
*799 FILLER_26_177
*800 FILLER_26_189
*801 FILLER_26_195
*802 FILLER_26_197
*803 FILLER_26_209
*804 FILLER_26_21
*805 FILLER_26_221
*806 FILLER_26_233
*807 FILLER_26_245
*808 FILLER_26_251
*809 FILLER_26_253
*810 FILLER_26_265
*811 FILLER_26_27
*812 FILLER_26_277
*813 FILLER_26_289
*814 FILLER_26_29
*815 FILLER_26_297
*816 FILLER_26_3
*817 FILLER_26_38
*818 FILLER_26_46
*819 FILLER_26_54
*820 FILLER_26_62
*821 FILLER_26_69
*822 FILLER_26_81
*823 FILLER_26_9
*824 FILLER_26_90
*825 FILLER_27_105
*826 FILLER_27_111
*827 FILLER_27_113
*828 FILLER_27_125
*829 FILLER_27_137
*830 FILLER_27_149
*831 FILLER_27_161
*832 FILLER_27_167
*833 FILLER_27_169
*834 FILLER_27_18
*835 FILLER_27_181
*836 FILLER_27_193
*837 FILLER_27_205
*838 FILLER_27_217
*839 FILLER_27_223
*840 FILLER_27_225
*841 FILLER_27_237
*842 FILLER_27_249
*843 FILLER_27_26
*844 FILLER_27_261
*845 FILLER_27_273
*846 FILLER_27_279
*847 FILLER_27_281
*848 FILLER_27_293
*849 FILLER_27_33
*850 FILLER_27_45
*851 FILLER_27_53
*852 FILLER_27_57
*853 FILLER_27_6
*854 FILLER_27_65
*855 FILLER_27_69
*856 FILLER_27_81
*857 FILLER_27_89
*858 FILLER_27_93
*859 FILLER_28_109
*860 FILLER_28_121
*861 FILLER_28_133
*862 FILLER_28_139
*863 FILLER_28_141
*864 FILLER_28_153
*865 FILLER_28_165
*866 FILLER_28_177
*867 FILLER_28_18
*868 FILLER_28_189
*869 FILLER_28_195
*870 FILLER_28_197
*871 FILLER_28_209
*872 FILLER_28_221
*873 FILLER_28_233
*874 FILLER_28_245
*875 FILLER_28_251
*876 FILLER_28_253
*877 FILLER_28_26
*878 FILLER_28_265
*879 FILLER_28_277
*880 FILLER_28_289
*881 FILLER_28_297
*882 FILLER_28_3
*883 FILLER_28_33
*884 FILLER_28_45
*885 FILLER_28_57
*886 FILLER_28_69
*887 FILLER_28_81
*888 FILLER_28_85
*889 FILLER_28_9
*890 FILLER_28_97
*891 FILLER_29_107
*892 FILLER_29_111
*893 FILLER_29_113
*894 FILLER_29_125
*895 FILLER_29_137
*896 FILLER_29_149
*897 FILLER_29_15
*898 FILLER_29_161
*899 FILLER_29_167
*900 FILLER_29_169
*901 FILLER_29_181
*902 FILLER_29_193
*903 FILLER_29_205
*904 FILLER_29_217
*905 FILLER_29_223
*906 FILLER_29_225
*907 FILLER_29_237
*908 FILLER_29_249
*909 FILLER_29_261
*910 FILLER_29_27
*911 FILLER_29_273
*912 FILLER_29_279
*913 FILLER_29_281
*914 FILLER_29_293
*915 FILLER_29_3
*916 FILLER_29_39
*917 FILLER_29_51
*918 FILLER_29_55
*919 FILLER_29_57
*920 FILLER_29_65
*921 FILLER_29_73
*922 FILLER_29_83
*923 FILLER_29_95
*924 FILLER_2_100
*925 FILLER_2_121
*926 FILLER_2_133
*927 FILLER_2_139
*928 FILLER_2_141
*929 FILLER_2_153
*930 FILLER_2_165
*931 FILLER_2_177
*932 FILLER_2_189
*933 FILLER_2_195
*934 FILLER_2_197
*935 FILLER_2_20
*936 FILLER_2_209
*937 FILLER_2_221
*938 FILLER_2_233
*939 FILLER_2_245
*940 FILLER_2_251
*941 FILLER_2_253
*942 FILLER_2_265
*943 FILLER_2_277
*944 FILLER_2_289
*945 FILLER_2_297
*946 FILLER_2_3
*947 FILLER_2_32
*948 FILLER_2_39
*949 FILLER_2_65
*950 FILLER_2_77
*951 FILLER_2_83
*952 FILLER_2_88
*953 FILLER_30_110
*954 FILLER_30_122
*955 FILLER_30_134
*956 FILLER_30_141
*957 FILLER_30_15
*958 FILLER_30_153
*959 FILLER_30_165
*960 FILLER_30_177
*961 FILLER_30_189
*962 FILLER_30_195
*963 FILLER_30_197
*964 FILLER_30_209
*965 FILLER_30_221
*966 FILLER_30_233
*967 FILLER_30_245
*968 FILLER_30_251
*969 FILLER_30_253
*970 FILLER_30_265
*971 FILLER_30_27
*972 FILLER_30_277
*973 FILLER_30_289
*974 FILLER_30_297
*975 FILLER_30_3
*976 FILLER_30_38
*977 FILLER_30_50
*978 FILLER_30_62
*979 FILLER_30_70
*980 FILLER_30_77
*981 FILLER_30_83
*982 FILLER_30_85
*983 FILLER_30_97
*984 FILLER_31_105
*985 FILLER_31_111
*986 FILLER_31_113
*987 FILLER_31_125
*988 FILLER_31_137
*989 FILLER_31_149
*990 FILLER_31_15
*991 FILLER_31_161
*992 FILLER_31_167
*993 FILLER_31_169
*994 FILLER_31_181
*995 FILLER_31_193
*996 FILLER_31_205
*997 FILLER_31_217
*998 FILLER_31_223
*999 FILLER_31_225
*1000 FILLER_31_237
*1001 FILLER_31_249
*1002 FILLER_31_261
*1003 FILLER_31_27
*1004 FILLER_31_273
*1005 FILLER_31_279
*1006 FILLER_31_281
*1007 FILLER_31_293
*1008 FILLER_31_3
*1009 FILLER_31_39
*1010 FILLER_31_51
*1011 FILLER_31_55
*1012 FILLER_31_57
*1013 FILLER_31_69
*1014 FILLER_31_81
*1015 FILLER_31_93
*1016 FILLER_32_109
*1017 FILLER_32_121
*1018 FILLER_32_129
*1019 FILLER_32_133
*1020 FILLER_32_139
*1021 FILLER_32_141
*1022 FILLER_32_15
*1023 FILLER_32_153
*1024 FILLER_32_165
*1025 FILLER_32_177
*1026 FILLER_32_189
*1027 FILLER_32_195
*1028 FILLER_32_197
*1029 FILLER_32_209
*1030 FILLER_32_221
*1031 FILLER_32_233
*1032 FILLER_32_245
*1033 FILLER_32_251
*1034 FILLER_32_253
*1035 FILLER_32_265
*1036 FILLER_32_27
*1037 FILLER_32_277
*1038 FILLER_32_289
*1039 FILLER_32_29
*1040 FILLER_32_297
*1041 FILLER_32_3
*1042 FILLER_32_33
*1043 FILLER_32_45
*1044 FILLER_32_57
*1045 FILLER_32_69
*1046 FILLER_32_81
*1047 FILLER_32_85
*1048 FILLER_32_97
*1049 FILLER_33_105
*1050 FILLER_33_111
*1051 FILLER_33_113
*1052 FILLER_33_125
*1053 FILLER_33_137
*1054 FILLER_33_149
*1055 FILLER_33_15
*1056 FILLER_33_161
*1057 FILLER_33_167
*1058 FILLER_33_169
*1059 FILLER_33_181
*1060 FILLER_33_193
*1061 FILLER_33_205
*1062 FILLER_33_217
*1063 FILLER_33_223
*1064 FILLER_33_225
*1065 FILLER_33_237
*1066 FILLER_33_249
*1067 FILLER_33_261
*1068 FILLER_33_27
*1069 FILLER_33_273
*1070 FILLER_33_279
*1071 FILLER_33_281
*1072 FILLER_33_293
*1073 FILLER_33_3
*1074 FILLER_33_39
*1075 FILLER_33_51
*1076 FILLER_33_55
*1077 FILLER_33_57
*1078 FILLER_33_64
*1079 FILLER_33_76
*1080 FILLER_33_84
*1081 FILLER_33_93
*1082 FILLER_34_109
*1083 FILLER_34_121
*1084 FILLER_34_133
*1085 FILLER_34_139
*1086 FILLER_34_141
*1087 FILLER_34_15
*1088 FILLER_34_153
*1089 FILLER_34_165
*1090 FILLER_34_177
*1091 FILLER_34_189
*1092 FILLER_34_195
*1093 FILLER_34_197
*1094 FILLER_34_209
*1095 FILLER_34_221
*1096 FILLER_34_233
*1097 FILLER_34_245
*1098 FILLER_34_251
*1099 FILLER_34_253
*1100 FILLER_34_265
*1101 FILLER_34_27
*1102 FILLER_34_277
*1103 FILLER_34_289
*1104 FILLER_34_29
*1105 FILLER_34_297
*1106 FILLER_34_3
*1107 FILLER_34_41
*1108 FILLER_34_47
*1109 FILLER_34_55
*1110 FILLER_34_66
*1111 FILLER_34_78
*1112 FILLER_34_85
*1113 FILLER_34_97
*1114 FILLER_35_105
*1115 FILLER_35_111
*1116 FILLER_35_113
*1117 FILLER_35_125
*1118 FILLER_35_137
*1119 FILLER_35_149
*1120 FILLER_35_161
*1121 FILLER_35_167
*1122 FILLER_35_169
*1123 FILLER_35_181
*1124 FILLER_35_193
*1125 FILLER_35_205
*1126 FILLER_35_21
*1127 FILLER_35_217
*1128 FILLER_35_223
*1129 FILLER_35_225
*1130 FILLER_35_237
*1131 FILLER_35_249
*1132 FILLER_35_261
*1133 FILLER_35_273
*1134 FILLER_35_279
*1135 FILLER_35_281
*1136 FILLER_35_293
*1137 FILLER_35_3
*1138 FILLER_35_33
*1139 FILLER_35_45
*1140 FILLER_35_53
*1141 FILLER_35_57
*1142 FILLER_35_69
*1143 FILLER_35_81
*1144 FILLER_35_9
*1145 FILLER_35_93
*1146 FILLER_36_109
*1147 FILLER_36_121
*1148 FILLER_36_133
*1149 FILLER_36_139
*1150 FILLER_36_146
*1151 FILLER_36_15
*1152 FILLER_36_158
*1153 FILLER_36_170
*1154 FILLER_36_182
*1155 FILLER_36_194
*1156 FILLER_36_197
*1157 FILLER_36_209
*1158 FILLER_36_221
*1159 FILLER_36_233
*1160 FILLER_36_245
*1161 FILLER_36_251
*1162 FILLER_36_253
*1163 FILLER_36_265
*1164 FILLER_36_27
*1165 FILLER_36_277
*1166 FILLER_36_289
*1167 FILLER_36_29
*1168 FILLER_36_297
*1169 FILLER_36_3
*1170 FILLER_36_41
*1171 FILLER_36_53
*1172 FILLER_36_59
*1173 FILLER_36_70
*1174 FILLER_36_82
*1175 FILLER_36_85
*1176 FILLER_36_97
*1177 FILLER_37_105
*1178 FILLER_37_111
*1179 FILLER_37_113
*1180 FILLER_37_123
*1181 FILLER_37_131
*1182 FILLER_37_136
*1183 FILLER_37_148
*1184 FILLER_37_15
*1185 FILLER_37_160
*1186 FILLER_37_169
*1187 FILLER_37_181
*1188 FILLER_37_193
*1189 FILLER_37_205
*1190 FILLER_37_217
*1191 FILLER_37_223
*1192 FILLER_37_225
*1193 FILLER_37_237
*1194 FILLER_37_249
*1195 FILLER_37_261
*1196 FILLER_37_27
*1197 FILLER_37_273
*1198 FILLER_37_279
*1199 FILLER_37_281
*1200 FILLER_37_293
*1201 FILLER_37_3
*1202 FILLER_37_35
*1203 FILLER_37_41
*1204 FILLER_37_53
*1205 FILLER_37_57
*1206 FILLER_37_69
*1207 FILLER_37_81
*1208 FILLER_37_93
*1209 FILLER_38_109
*1210 FILLER_38_125
*1211 FILLER_38_137
*1212 FILLER_38_141
*1213 FILLER_38_15
*1214 FILLER_38_153
*1215 FILLER_38_165
*1216 FILLER_38_177
*1217 FILLER_38_189
*1218 FILLER_38_19
*1219 FILLER_38_195
*1220 FILLER_38_197
*1221 FILLER_38_209
*1222 FILLER_38_221
*1223 FILLER_38_233
*1224 FILLER_38_24
*1225 FILLER_38_245
*1226 FILLER_38_251
*1227 FILLER_38_253
*1228 FILLER_38_265
*1229 FILLER_38_277
*1230 FILLER_38_289
*1231 FILLER_38_29
*1232 FILLER_38_297
*1233 FILLER_38_3
*1234 FILLER_38_35
*1235 FILLER_38_44
*1236 FILLER_38_52
*1237 FILLER_38_64
*1238 FILLER_38_76
*1239 FILLER_38_85
*1240 FILLER_38_97
*1241 FILLER_39_101
*1242 FILLER_39_109
*1243 FILLER_39_113
*1244 FILLER_39_125
*1245 FILLER_39_137
*1246 FILLER_39_149
*1247 FILLER_39_15
*1248 FILLER_39_161
*1249 FILLER_39_167
*1250 FILLER_39_169
*1251 FILLER_39_181
*1252 FILLER_39_193
*1253 FILLER_39_205
*1254 FILLER_39_217
*1255 FILLER_39_223
*1256 FILLER_39_225
*1257 FILLER_39_237
*1258 FILLER_39_249
*1259 FILLER_39_261
*1260 FILLER_39_27
*1261 FILLER_39_273
*1262 FILLER_39_279
*1263 FILLER_39_281
*1264 FILLER_39_293
*1265 FILLER_39_3
*1266 FILLER_39_39
*1267 FILLER_39_51
*1268 FILLER_39_55
*1269 FILLER_39_57
*1270 FILLER_39_69
*1271 FILLER_39_81
*1272 FILLER_39_89
*1273 FILLER_3_105
*1274 FILLER_3_111
*1275 FILLER_3_129
*1276 FILLER_3_141
*1277 FILLER_3_153
*1278 FILLER_3_165
*1279 FILLER_3_169
*1280 FILLER_3_181
*1281 FILLER_3_193
*1282 FILLER_3_205
*1283 FILLER_3_217
*1284 FILLER_3_223
*1285 FILLER_3_225
*1286 FILLER_3_237
*1287 FILLER_3_249
*1288 FILLER_3_261
*1289 FILLER_3_27
*1290 FILLER_3_273
*1291 FILLER_3_279
*1292 FILLER_3_281
*1293 FILLER_3_293
*1294 FILLER_3_3
*1295 FILLER_3_31
*1296 FILLER_3_48
*1297 FILLER_3_60
*1298 FILLER_3_67
*1299 FILLER_3_93
*1300 FILLER_40_104
*1301 FILLER_40_116
*1302 FILLER_40_128
*1303 FILLER_40_141
*1304 FILLER_40_15
*1305 FILLER_40_153
*1306 FILLER_40_165
*1307 FILLER_40_177
*1308 FILLER_40_189
*1309 FILLER_40_195
*1310 FILLER_40_197
*1311 FILLER_40_209
*1312 FILLER_40_221
*1313 FILLER_40_233
*1314 FILLER_40_245
*1315 FILLER_40_251
*1316 FILLER_40_253
*1317 FILLER_40_265
*1318 FILLER_40_27
*1319 FILLER_40_277
*1320 FILLER_40_289
*1321 FILLER_40_29
*1322 FILLER_40_297
*1323 FILLER_40_3
*1324 FILLER_40_41
*1325 FILLER_40_53
*1326 FILLER_40_61
*1327 FILLER_40_69
*1328 FILLER_40_81
*1329 FILLER_40_92
*1330 FILLER_41_105
*1331 FILLER_41_111
*1332 FILLER_41_113
*1333 FILLER_41_125
*1334 FILLER_41_137
*1335 FILLER_41_149
*1336 FILLER_41_15
*1337 FILLER_41_161
*1338 FILLER_41_167
*1339 FILLER_41_169
*1340 FILLER_41_181
*1341 FILLER_41_193
*1342 FILLER_41_205
*1343 FILLER_41_217
*1344 FILLER_41_223
*1345 FILLER_41_225
*1346 FILLER_41_237
*1347 FILLER_41_249
*1348 FILLER_41_261
*1349 FILLER_41_273
*1350 FILLER_41_279
*1351 FILLER_41_28
*1352 FILLER_41_281
*1353 FILLER_41_293
*1354 FILLER_41_3
*1355 FILLER_41_40
*1356 FILLER_41_52
*1357 FILLER_41_57
*1358 FILLER_41_69
*1359 FILLER_41_81
*1360 FILLER_41_93
*1361 FILLER_42_109
*1362 FILLER_42_121
*1363 FILLER_42_133
*1364 FILLER_42_139
*1365 FILLER_42_146
*1366 FILLER_42_15
*1367 FILLER_42_158
*1368 FILLER_42_170
*1369 FILLER_42_182
*1370 FILLER_42_194
*1371 FILLER_42_197
*1372 FILLER_42_209
*1373 FILLER_42_221
*1374 FILLER_42_233
*1375 FILLER_42_245
*1376 FILLER_42_251
*1377 FILLER_42_253
*1378 FILLER_42_265
*1379 FILLER_42_27
*1380 FILLER_42_277
*1381 FILLER_42_289
*1382 FILLER_42_29
*1383 FILLER_42_297
*1384 FILLER_42_3
*1385 FILLER_42_46
*1386 FILLER_42_58
*1387 FILLER_42_70
*1388 FILLER_42_82
*1389 FILLER_42_85
*1390 FILLER_42_97
*1391 FILLER_43_103
*1392 FILLER_43_111
*1393 FILLER_43_113
*1394 FILLER_43_125
*1395 FILLER_43_133
*1396 FILLER_43_141
*1397 FILLER_43_15
*1398 FILLER_43_153
*1399 FILLER_43_165
*1400 FILLER_43_169
*1401 FILLER_43_181
*1402 FILLER_43_193
*1403 FILLER_43_205
*1404 FILLER_43_217
*1405 FILLER_43_223
*1406 FILLER_43_225
*1407 FILLER_43_237
*1408 FILLER_43_249
*1409 FILLER_43_261
*1410 FILLER_43_27
*1411 FILLER_43_273
*1412 FILLER_43_279
*1413 FILLER_43_281
*1414 FILLER_43_293
*1415 FILLER_43_3
*1416 FILLER_43_31
*1417 FILLER_43_40
*1418 FILLER_43_52
*1419 FILLER_43_57
*1420 FILLER_43_65
*1421 FILLER_43_77
*1422 FILLER_43_89
*1423 FILLER_43_95
*1424 FILLER_44_109
*1425 FILLER_44_121
*1426 FILLER_44_133
*1427 FILLER_44_139
*1428 FILLER_44_141
*1429 FILLER_44_15
*1430 FILLER_44_153
*1431 FILLER_44_165
*1432 FILLER_44_177
*1433 FILLER_44_189
*1434 FILLER_44_195
*1435 FILLER_44_197
*1436 FILLER_44_209
*1437 FILLER_44_221
*1438 FILLER_44_233
*1439 FILLER_44_245
*1440 FILLER_44_251
*1441 FILLER_44_253
*1442 FILLER_44_265
*1443 FILLER_44_27
*1444 FILLER_44_277
*1445 FILLER_44_289
*1446 FILLER_44_29
*1447 FILLER_44_297
*1448 FILLER_44_3
*1449 FILLER_44_41
*1450 FILLER_44_53
*1451 FILLER_44_65
*1452 FILLER_44_77
*1453 FILLER_44_83
*1454 FILLER_44_85
*1455 FILLER_44_97
*1456 FILLER_45_105
*1457 FILLER_45_111
*1458 FILLER_45_113
*1459 FILLER_45_125
*1460 FILLER_45_137
*1461 FILLER_45_149
*1462 FILLER_45_15
*1463 FILLER_45_161
*1464 FILLER_45_167
*1465 FILLER_45_169
*1466 FILLER_45_181
*1467 FILLER_45_193
*1468 FILLER_45_205
*1469 FILLER_45_217
*1470 FILLER_45_223
*1471 FILLER_45_225
*1472 FILLER_45_237
*1473 FILLER_45_249
*1474 FILLER_45_261
*1475 FILLER_45_27
*1476 FILLER_45_273
*1477 FILLER_45_279
*1478 FILLER_45_281
*1479 FILLER_45_293
*1480 FILLER_45_3
*1481 FILLER_45_39
*1482 FILLER_45_51
*1483 FILLER_45_55
*1484 FILLER_45_57
*1485 FILLER_45_69
*1486 FILLER_45_81
*1487 FILLER_45_93
*1488 FILLER_46_107
*1489 FILLER_46_119
*1490 FILLER_46_131
*1491 FILLER_46_139
*1492 FILLER_46_141
*1493 FILLER_46_15
*1494 FILLER_46_153
*1495 FILLER_46_165
*1496 FILLER_46_177
*1497 FILLER_46_189
*1498 FILLER_46_195
*1499 FILLER_46_197
*1500 FILLER_46_209
*1501 FILLER_46_221
*1502 FILLER_46_233
*1503 FILLER_46_245
*1504 FILLER_46_251
*1505 FILLER_46_253
*1506 FILLER_46_265
*1507 FILLER_46_27
*1508 FILLER_46_277
*1509 FILLER_46_289
*1510 FILLER_46_297
*1511 FILLER_46_3
*1512 FILLER_46_34
*1513 FILLER_46_40
*1514 FILLER_46_49
*1515 FILLER_46_61
*1516 FILLER_46_79
*1517 FILLER_46_83
*1518 FILLER_46_85
*1519 FILLER_46_91
*1520 FILLER_46_95
*1521 FILLER_47_101
*1522 FILLER_47_109
*1523 FILLER_47_113
*1524 FILLER_47_125
*1525 FILLER_47_137
*1526 FILLER_47_149
*1527 FILLER_47_16
*1528 FILLER_47_161
*1529 FILLER_47_167
*1530 FILLER_47_169
*1531 FILLER_47_181
*1532 FILLER_47_193
*1533 FILLER_47_205
*1534 FILLER_47_217
*1535 FILLER_47_223
*1536 FILLER_47_225
*1537 FILLER_47_237
*1538 FILLER_47_249
*1539 FILLER_47_261
*1540 FILLER_47_273
*1541 FILLER_47_279
*1542 FILLER_47_28
*1543 FILLER_47_281
*1544 FILLER_47_293
*1545 FILLER_47_3
*1546 FILLER_47_40
*1547 FILLER_47_52
*1548 FILLER_47_57
*1549 FILLER_47_61
*1550 FILLER_47_65
*1551 FILLER_47_77
*1552 FILLER_47_8
*1553 FILLER_47_89
*1554 FILLER_48_101
*1555 FILLER_48_113
*1556 FILLER_48_125
*1557 FILLER_48_137
*1558 FILLER_48_141
*1559 FILLER_48_15
*1560 FILLER_48_153
*1561 FILLER_48_165
*1562 FILLER_48_177
*1563 FILLER_48_189
*1564 FILLER_48_195
*1565 FILLER_48_197
*1566 FILLER_48_209
*1567 FILLER_48_221
*1568 FILLER_48_23
*1569 FILLER_48_233
*1570 FILLER_48_245
*1571 FILLER_48_251
*1572 FILLER_48_253
*1573 FILLER_48_265
*1574 FILLER_48_27
*1575 FILLER_48_277
*1576 FILLER_48_289
*1577 FILLER_48_29
*1578 FILLER_48_297
*1579 FILLER_48_3
*1580 FILLER_48_41
*1581 FILLER_48_53
*1582 FILLER_48_65
*1583 FILLER_48_77
*1584 FILLER_48_83
*1585 FILLER_48_85
*1586 FILLER_48_9
*1587 FILLER_48_93
*1588 FILLER_49_105
*1589 FILLER_49_111
*1590 FILLER_49_113
*1591 FILLER_49_125
*1592 FILLER_49_137
*1593 FILLER_49_14
*1594 FILLER_49_149
*1595 FILLER_49_161
*1596 FILLER_49_167
*1597 FILLER_49_169
*1598 FILLER_49_181
*1599 FILLER_49_193
*1600 FILLER_49_205
*1601 FILLER_49_217
*1602 FILLER_49_223
*1603 FILLER_49_225
*1604 FILLER_49_237
*1605 FILLER_49_249
*1606 FILLER_49_26
*1607 FILLER_49_261
*1608 FILLER_49_273
*1609 FILLER_49_279
*1610 FILLER_49_281
*1611 FILLER_49_293
*1612 FILLER_49_3
*1613 FILLER_49_38
*1614 FILLER_49_50
*1615 FILLER_49_57
*1616 FILLER_49_69
*1617 FILLER_49_81
*1618 FILLER_49_9
*1619 FILLER_49_93
*1620 FILLER_4_106
*1621 FILLER_4_118
*1622 FILLER_4_130
*1623 FILLER_4_138
*1624 FILLER_4_141
*1625 FILLER_4_153
*1626 FILLER_4_165
*1627 FILLER_4_177
*1628 FILLER_4_189
*1629 FILLER_4_195
*1630 FILLER_4_197
*1631 FILLER_4_20
*1632 FILLER_4_209
*1633 FILLER_4_221
*1634 FILLER_4_233
*1635 FILLER_4_245
*1636 FILLER_4_251
*1637 FILLER_4_253
*1638 FILLER_4_265
*1639 FILLER_4_277