*SPEF "ieee 1481-1999"
*DESIGN "user_module_341546888233747026"
*DATE "11:11:11 Fri 11 11, 1111"
*VENDOR "OpenRCX"
*PROGRAM "Parallel Extraction"
*VERSION "1.0"
*DESIGN_FLOW "NAME_SCOPE LOCAL" "PIN_CAP NONE"
*DIVIDER /
*DELIMITER :
*BUS_DELIMITER []
*T_UNIT 1 NS
*C_UNIT 1 PF
*R_UNIT 1 OHM
*L_UNIT 1 HENRY

*NAME_MAP
*1 io_in[0]
*2 io_in[1]
*3 io_in[2]
*4 io_in[3]
*5 io_in[4]
*6 io_in[5]
*7 io_in[6]
*8 io_in[7]
*9 io_out[0]
*10 io_out[1]
*11 io_out[2]
*12 io_out[3]
*13 io_out[4]
*14 io_out[5]
*15 io_out[6]
*16 io_out[7]
*19 _00_
*20 _01_
*21 _02_
*22 _03_
*23 _04_
*24 _05_
*25 _06_
*26 _07_
*27 _08_
*28 _09_
*29 _10_
*30 _11_
*31 _12_
*32 _13_
*33 _14_
*34 _15_
*35 _16_
*36 _17_
*37 _18_
*38 _19_
*39 _20_
*40 _21_
*41 _23_
*42 _24_
*43 _25_
*44 clknet_0__00_
*45 clknet_0__02_
*46 clknet_0__04_
*47 clknet_0__05_
*48 clknet_0__06_
*49 clknet_0__11_
*50 clknet_0__12_
*51 clknet_0__13_
*52 clknet_0__14_
*53 clknet_0__15_
*54 clknet_0__16_
*55 clknet_0__20_
*56 clknet_0__21_
*57 clknet_0_io_in[0]
*58 clknet_1_0__leaf__00_
*59 clknet_1_0__leaf__02_
*60 clknet_1_0__leaf__04_
*61 clknet_1_0__leaf__05_
*62 clknet_1_0__leaf__06_
*63 clknet_1_0__leaf__11_
*64 clknet_1_0__leaf__12_
*65 clknet_1_0__leaf__13_
*66 clknet_1_0__leaf__14_
*67 clknet_1_0__leaf__15_
*68 clknet_1_0__leaf__16_
*69 clknet_1_0__leaf__20_
*70 clknet_1_0__leaf__21_
*71 clknet_1_0__leaf_io_in[0]
*72 clknet_1_1__leaf__00_
*73 clknet_1_1__leaf__02_
*74 clknet_1_1__leaf__04_
*75 clknet_1_1__leaf__05_
*76 clknet_1_1__leaf__06_
*77 clknet_1_1__leaf__11_
*78 clknet_1_1__leaf__12_
*79 clknet_1_1__leaf__13_
*80 clknet_1_1__leaf__14_
*81 clknet_1_1__leaf__15_
*82 clknet_1_1__leaf__16_
*83 clknet_1_1__leaf__20_
*84 clknet_1_1__leaf__21_
*85 clknet_1_1__leaf_io_in[0]
*86 gate27\.out
*87 gate30\.out
*88 gate32\.out
*89 gate36\.out
*90 gate42\.out
*91 gate46\.out
*92 gate52\.out
*93 gate74\.out
*94 net1
*95 net2
*96 net3
*97 net4
*98 net5
*99 net6
*100 net7
*101 net8
*102 FILLER_0_109
*103 FILLER_0_113
*104 FILLER_0_125
*105 FILLER_0_137
*106 FILLER_0_141
*107 FILLER_0_15
*108 FILLER_0_153
*109 FILLER_0_165
*110 FILLER_0_169
*111 FILLER_0_181
*112 FILLER_0_193
*113 FILLER_0_197
*114 FILLER_0_209
*115 FILLER_0_221
*116 FILLER_0_225
*117 FILLER_0_237
*118 FILLER_0_249
*119 FILLER_0_253
*120 FILLER_0_265
*121 FILLER_0_27
*122 FILLER_0_277
*123 FILLER_0_281
*124 FILLER_0_29
*125 FILLER_0_293
*126 FILLER_0_3
*127 FILLER_0_41
*128 FILLER_0_53
*129 FILLER_0_57
*130 FILLER_0_69
*131 FILLER_0_81
*132 FILLER_0_85
*133 FILLER_0_97
*134 FILLER_10_109
*135 FILLER_10_121
*136 FILLER_10_133
*137 FILLER_10_139
*138 FILLER_10_141
*139 FILLER_10_15
*140 FILLER_10_153
*141 FILLER_10_165
*142 FILLER_10_177
*143 FILLER_10_189
*144 FILLER_10_195
*145 FILLER_10_197
*146 FILLER_10_209
*147 FILLER_10_221
*148 FILLER_10_233
*149 FILLER_10_245
*150 FILLER_10_251
*151 FILLER_10_253
*152 FILLER_10_265
*153 FILLER_10_27
*154 FILLER_10_277
*155 FILLER_10_289
*156 FILLER_10_29
*157 FILLER_10_297
*158 FILLER_10_3
*159 FILLER_10_41
*160 FILLER_10_53
*161 FILLER_10_65
*162 FILLER_10_77
*163 FILLER_10_83
*164 FILLER_10_85
*165 FILLER_10_97
*166 FILLER_11_105
*167 FILLER_11_111
*168 FILLER_11_113
*169 FILLER_11_125
*170 FILLER_11_137
*171 FILLER_11_149
*172 FILLER_11_15
*173 FILLER_11_161
*174 FILLER_11_167
*175 FILLER_11_169
*176 FILLER_11_181
*177 FILLER_11_193
*178 FILLER_11_205
*179 FILLER_11_217
*180 FILLER_11_223
*181 FILLER_11_225
*182 FILLER_11_237
*183 FILLER_11_249
*184 FILLER_11_261
*185 FILLER_11_27
*186 FILLER_11_273
*187 FILLER_11_279
*188 FILLER_11_281
*189 FILLER_11_293
*190 FILLER_11_3
*191 FILLER_11_39
*192 FILLER_11_51
*193 FILLER_11_55
*194 FILLER_11_57
*195 FILLER_11_69
*196 FILLER_11_81
*197 FILLER_11_93
*198 FILLER_12_109
*199 FILLER_12_121
*200 FILLER_12_133
*201 FILLER_12_139
*202 FILLER_12_141
*203 FILLER_12_153
*204 FILLER_12_165
*205 FILLER_12_177
*206 FILLER_12_18
*207 FILLER_12_189
*208 FILLER_12_195
*209 FILLER_12_197
*210 FILLER_12_209
*211 FILLER_12_221
*212 FILLER_12_233
*213 FILLER_12_245
*214 FILLER_12_251
*215 FILLER_12_253
*216 FILLER_12_26
*217 FILLER_12_265
*218 FILLER_12_277
*219 FILLER_12_289
*220 FILLER_12_29
*221 FILLER_12_297
*222 FILLER_12_41
*223 FILLER_12_53
*224 FILLER_12_6
*225 FILLER_12_65
*226 FILLER_12_77
*227 FILLER_12_83
*228 FILLER_12_85
*229 FILLER_12_97
*230 FILLER_13_105
*231 FILLER_13_111
*232 FILLER_13_113
*233 FILLER_13_125
*234 FILLER_13_137
*235 FILLER_13_149
*236 FILLER_13_15
*237 FILLER_13_161
*238 FILLER_13_167
*239 FILLER_13_169
*240 FILLER_13_181
*241 FILLER_13_193
*242 FILLER_13_205
*243 FILLER_13_217
*244 FILLER_13_223
*245 FILLER_13_225
*246 FILLER_13_237
*247 FILLER_13_249
*248 FILLER_13_261
*249 FILLER_13_27
*250 FILLER_13_273
*251 FILLER_13_279
*252 FILLER_13_281
*253 FILLER_13_293
*254 FILLER_13_3
*255 FILLER_13_39
*256 FILLER_13_51
*257 FILLER_13_55
*258 FILLER_13_57
*259 FILLER_13_69
*260 FILLER_13_81
*261 FILLER_13_93
*262 FILLER_14_109
*263 FILLER_14_11
*264 FILLER_14_121
*265 FILLER_14_133
*266 FILLER_14_139
*267 FILLER_14_141
*268 FILLER_14_153
*269 FILLER_14_165
*270 FILLER_14_177
*271 FILLER_14_189
*272 FILLER_14_195
*273 FILLER_14_197
*274 FILLER_14_209
*275 FILLER_14_221
*276 FILLER_14_23
*277 FILLER_14_233
*278 FILLER_14_245
*279 FILLER_14_251
*280 FILLER_14_253
*281 FILLER_14_265
*282 FILLER_14_27
*283 FILLER_14_277
*284 FILLER_14_289
*285 FILLER_14_29
*286 FILLER_14_297
*287 FILLER_14_3
*288 FILLER_14_41
*289 FILLER_14_53
*290 FILLER_14_65
*291 FILLER_14_77
*292 FILLER_14_83
*293 FILLER_14_85
*294 FILLER_14_97
*295 FILLER_15_105
*296 FILLER_15_11
*297 FILLER_15_111
*298 FILLER_15_113
*299 FILLER_15_125
*300 FILLER_15_137
*301 FILLER_15_149
*302 FILLER_15_161
*303 FILLER_15_167
*304 FILLER_15_169
*305 FILLER_15_181
*306 FILLER_15_193
*307 FILLER_15_205
*308 FILLER_15_217
*309 FILLER_15_223
*310 FILLER_15_225
*311 FILLER_15_237
*312 FILLER_15_249
*313 FILLER_15_261
*314 FILLER_15_273
*315 FILLER_15_279
*316 FILLER_15_281
*317 FILLER_15_293
*318 FILLER_15_3
*319 FILLER_15_34
*320 FILLER_15_46
*321 FILLER_15_54
*322 FILLER_15_57
*323 FILLER_15_69
*324 FILLER_15_81
*325 FILLER_15_93
*326 FILLER_16_109
*327 FILLER_16_11
*328 FILLER_16_121
*329 FILLER_16_133
*330 FILLER_16_139
*331 FILLER_16_141
*332 FILLER_16_153
*333 FILLER_16_165
*334 FILLER_16_177
*335 FILLER_16_189
*336 FILLER_16_195
*337 FILLER_16_197
*338 FILLER_16_209
*339 FILLER_16_221
*340 FILLER_16_23
*341 FILLER_16_233
*342 FILLER_16_245
*343 FILLER_16_251
*344 FILLER_16_253
*345 FILLER_16_265
*346 FILLER_16_27
*347 FILLER_16_277
*348 FILLER_16_289
*349 FILLER_16_29
*350 FILLER_16_297
*351 FILLER_16_3
*352 FILLER_16_41
*353 FILLER_16_53
*354 FILLER_16_65
*355 FILLER_16_77
*356 FILLER_16_83
*357 FILLER_16_85
*358 FILLER_16_97
*359 FILLER_17_105
*360 FILLER_17_111
*361 FILLER_17_113
*362 FILLER_17_125
*363 FILLER_17_137
*364 FILLER_17_149
*365 FILLER_17_15
*366 FILLER_17_161
*367 FILLER_17_167
*368 FILLER_17_169
*369 FILLER_17_181
*370 FILLER_17_193
*371 FILLER_17_205
*372 FILLER_17_217
*373 FILLER_17_223
*374 FILLER_17_225
*375 FILLER_17_237
*376 FILLER_17_249
*377 FILLER_17_261
*378 FILLER_17_27
*379 FILLER_17_273
*380 FILLER_17_279
*381 FILLER_17_281
*382 FILLER_17_293
*383 FILLER_17_3
*384 FILLER_17_39
*385 FILLER_17_51
*386 FILLER_17_55
*387 FILLER_17_57
*388 FILLER_17_69
*389 FILLER_17_81
*390 FILLER_17_93
*391 FILLER_18_109
*392 FILLER_18_121
*393 FILLER_18_133
*394 FILLER_18_139
*395 FILLER_18_141
*396 FILLER_18_15
*397 FILLER_18_153
*398 FILLER_18_165
*399 FILLER_18_177
*400 FILLER_18_189
*401 FILLER_18_195
*402 FILLER_18_197
*403 FILLER_18_209
*404 FILLER_18_221
*405 FILLER_18_233
*406 FILLER_18_245
*407 FILLER_18_251
*408 FILLER_18_253
*409 FILLER_18_265
*410 FILLER_18_27
*411 FILLER_18_277
*412 FILLER_18_289
*413 FILLER_18_29
*414 FILLER_18_297
*415 FILLER_18_3
*416 FILLER_18_41
*417 FILLER_18_53
*418 FILLER_18_65
*419 FILLER_18_77
*420 FILLER_18_83
*421 FILLER_18_85
*422 FILLER_18_97
*423 FILLER_19_105
*424 FILLER_19_11
*425 FILLER_19_111
*426 FILLER_19_113
*427 FILLER_19_125
*428 FILLER_19_137
*429 FILLER_19_149
*430 FILLER_19_15
*431 FILLER_19_161
*432 FILLER_19_167
*433 FILLER_19_169
*434 FILLER_19_181
*435 FILLER_19_193
*436 FILLER_19_205
*437 FILLER_19_217
*438 FILLER_19_223
*439 FILLER_19_225
*440 FILLER_19_237
*441 FILLER_19_249
*442 FILLER_19_261
*443 FILLER_19_27
*444 FILLER_19_273
*445 FILLER_19_279
*446 FILLER_19_281
*447 FILLER_19_293
*448 FILLER_19_3
*449 FILLER_19_39
*450 FILLER_19_51
*451 FILLER_19_55
*452 FILLER_19_57
*453 FILLER_19_69
*454 FILLER_19_81
*455 FILLER_19_93
*456 FILLER_1_105
*457 FILLER_1_111
*458 FILLER_1_113
*459 FILLER_1_125
*460 FILLER_1_137
*461 FILLER_1_149
*462 FILLER_1_15
*463 FILLER_1_161
*464 FILLER_1_167
*465 FILLER_1_169
*466 FILLER_1_181
*467 FILLER_1_193
*468 FILLER_1_205
*469 FILLER_1_217
*470 FILLER_1_223
*471 FILLER_1_225
*472 FILLER_1_237
*473 FILLER_1_249
*474 FILLER_1_261
*475 FILLER_1_27
*476 FILLER_1_273
*477 FILLER_1_279
*478 FILLER_1_281
*479 FILLER_1_293
*480 FILLER_1_3
*481 FILLER_1_39
*482 FILLER_1_51
*483 FILLER_1_55
*484 FILLER_1_57
*485 FILLER_1_69
*486 FILLER_1_81
*487 FILLER_1_93
*488 FILLER_20_109
*489 FILLER_20_11
*490 FILLER_20_121
*491 FILLER_20_133
*492 FILLER_20_139
*493 FILLER_20_141
*494 FILLER_20_153
*495 FILLER_20_165
*496 FILLER_20_177
*497 FILLER_20_18
*498 FILLER_20_189
*499 FILLER_20_195
*500 FILLER_20_197
*501 FILLER_20_209
*502 FILLER_20_221
*503 FILLER_20_233
*504 FILLER_20_245
*505 FILLER_20_251
*506 FILLER_20_253
*507 FILLER_20_26
*508 FILLER_20_265
*509 FILLER_20_277
*510 FILLER_20_289
*511 FILLER_20_29
*512 FILLER_20_297
*513 FILLER_20_3
*514 FILLER_20_41
*515 FILLER_20_53
*516 FILLER_20_65
*517 FILLER_20_77
*518 FILLER_20_83
*519 FILLER_20_85
*520 FILLER_20_97
*521 FILLER_21_105
*522 FILLER_21_111
*523 FILLER_21_113
*524 FILLER_21_125
*525 FILLER_21_137
*526 FILLER_21_149
*527 FILLER_21_15
*528 FILLER_21_161
*529 FILLER_21_167
*530 FILLER_21_169
*531 FILLER_21_181
*532 FILLER_21_193
*533 FILLER_21_205
*534 FILLER_21_217
*535 FILLER_21_223
*536 FILLER_21_225
*537 FILLER_21_237
*538 FILLER_21_249
*539 FILLER_21_261
*540 FILLER_21_27
*541 FILLER_21_273
*542 FILLER_21_279
*543 FILLER_21_281
*544 FILLER_21_293
*545 FILLER_21_3
*546 FILLER_21_39
*547 FILLER_21_51
*548 FILLER_21_55
*549 FILLER_21_57
*550 FILLER_21_69
*551 FILLER_21_81
*552 FILLER_21_93
*553 FILLER_22_109
*554 FILLER_22_121
*555 FILLER_22_133
*556 FILLER_22_139
*557 FILLER_22_141
*558 FILLER_22_15
*559 FILLER_22_153
*560 FILLER_22_165
*561 FILLER_22_177
*562 FILLER_22_189
*563 FILLER_22_195
*564 FILLER_22_197
*565 FILLER_22_209
*566 FILLER_22_221
*567 FILLER_22_233
*568 FILLER_22_245
*569 FILLER_22_251
*570 FILLER_22_253
*571 FILLER_22_265
*572 FILLER_22_27
*573 FILLER_22_277
*574 FILLER_22_289
*575 FILLER_22_29
*576 FILLER_22_297
*577 FILLER_22_3
*578 FILLER_22_41
*579 FILLER_22_53
*580 FILLER_22_65
*581 FILLER_22_77
*582 FILLER_22_83
*583 FILLER_22_85
*584 FILLER_22_97
*585 FILLER_23_105
*586 FILLER_23_111
*587 FILLER_23_113
*588 FILLER_23_125
*589 FILLER_23_137
*590 FILLER_23_149
*591 FILLER_23_15
*592 FILLER_23_161
*593 FILLER_23_167
*594 FILLER_23_169
*595 FILLER_23_181
*596 FILLER_23_193
*597 FILLER_23_205
*598 FILLER_23_217
*599 FILLER_23_22
*600 FILLER_23_223
*601 FILLER_23_225
*602 FILLER_23_237
*603 FILLER_23_249
*604 FILLER_23_261
*605 FILLER_23_273
*606 FILLER_23_279
*607 FILLER_23_281
*608 FILLER_23_293
*609 FILLER_23_3
*610 FILLER_23_30
*611 FILLER_23_37
*612 FILLER_23_49
*613 FILLER_23_55
*614 FILLER_23_57
*615 FILLER_23_69
*616 FILLER_23_81
*617 FILLER_23_93
*618 FILLER_24_109
*619 FILLER_24_121
*620 FILLER_24_133
*621 FILLER_24_139
*622 FILLER_24_141
*623 FILLER_24_153
*624 FILLER_24_165
*625 FILLER_24_177
*626 FILLER_24_18
*627 FILLER_24_189
*628 FILLER_24_195
*629 FILLER_24_197
*630 FILLER_24_209
*631 FILLER_24_221
*632 FILLER_24_233
*633 FILLER_24_245
*634 FILLER_24_251
*635 FILLER_24_253
*636 FILLER_24_26
*637 FILLER_24_265
*638 FILLER_24_277
*639 FILLER_24_289
*640 FILLER_24_29
*641 FILLER_24_297
*642 FILLER_24_41
*643 FILLER_24_53
*644 FILLER_24_6
*645 FILLER_24_65
*646 FILLER_24_77
*647 FILLER_24_83
*648 FILLER_24_85
*649 FILLER_24_97
*650 FILLER_25_105
*651 FILLER_25_111
*652 FILLER_25_113
*653 FILLER_25_125
*654 FILLER_25_137
*655 FILLER_25_149
*656 FILLER_25_161
*657 FILLER_25_167
*658 FILLER_25_169
*659 FILLER_25_181
*660 FILLER_25_193
*661 FILLER_25_20
*662 FILLER_25_205
*663 FILLER_25_217
*664 FILLER_25_223
*665 FILLER_25_225
*666 FILLER_25_237
*667 FILLER_25_249
*668 FILLER_25_261
*669 FILLER_25_273
*670 FILLER_25_279
*671 FILLER_25_281
*672 FILLER_25_293
*673 FILLER_25_3
*674 FILLER_25_32
*675 FILLER_25_44
*676 FILLER_25_57
*677 FILLER_25_69
*678 FILLER_25_8
*679 FILLER_25_81
*680 FILLER_25_93
*681 FILLER_26_109
*682 FILLER_26_11
*683 FILLER_26_121
*684 FILLER_26_133
*685 FILLER_26_139
*686 FILLER_26_141
*687 FILLER_26_153
*688 FILLER_26_165
*689 FILLER_26_17
*690 FILLER_26_177
*691 FILLER_26_189
*692 FILLER_26_195
*693 FILLER_26_197
*694 FILLER_26_209
*695 FILLER_26_221
*696 FILLER_26_233
*697 FILLER_26_24
*698 FILLER_26_245
*699 FILLER_26_251
*700 FILLER_26_253
*701 FILLER_26_265
*702 FILLER_26_277
*703 FILLER_26_289
*704 FILLER_26_29
*705 FILLER_26_297
*706 FILLER_26_3
*707 FILLER_26_41
*708 FILLER_26_53
*709 FILLER_26_65
*710 FILLER_26_7
*711 FILLER_26_77
*712 FILLER_26_83
*713 FILLER_26_85
*714 FILLER_26_97
*715 FILLER_27_105
*716 FILLER_27_111
*717 FILLER_27_113
*718 FILLER_27_125
*719 FILLER_27_137
*720 FILLER_27_149
*721 FILLER_27_161
*722 FILLER_27_167
*723 FILLER_27_169
*724 FILLER_27_181
*725 FILLER_27_193
*726 FILLER_27_205
*727 FILLER_27_217
*728 FILLER_27_223
*729 FILLER_27_225
*730 FILLER_27_237
*731 FILLER_27_249
*732 FILLER_27_261
*733 FILLER_27_27
*734 FILLER_27_273
*735 FILLER_27_279
*736 FILLER_27_281
*737 FILLER_27_293
*738 FILLER_27_3
*739 FILLER_27_39
*740 FILLER_27_51
*741 FILLER_27_55
*742 FILLER_27_57
*743 FILLER_27_69
*744 FILLER_27_81
*745 FILLER_27_93
*746 FILLER_28_109
*747 FILLER_28_121
*748 FILLER_28_133
*749 FILLER_28_139
*750 FILLER_28_141
*751 FILLER_28_15
*752 FILLER_28_153
*753 FILLER_28_165
*754 FILLER_28_177
*755 FILLER_28_189
*756 FILLER_28_195
*757 FILLER_28_197
*758 FILLER_28_209
*759 FILLER_28_221
*760 FILLER_28_233
*761 FILLER_28_245
*762 FILLER_28_251
*763 FILLER_28_253
*764 FILLER_28_265
*765 FILLER_28_27
*766 FILLER_28_277
*767 FILLER_28_289
*768 FILLER_28_29
*769 FILLER_28_297
*770 FILLER_28_3
*771 FILLER_28_41
*772 FILLER_28_53
*773 FILLER_28_65
*774 FILLER_28_77
*775 FILLER_28_83
*776 FILLER_28_85
*777 FILLER_28_97
*778 FILLER_29_105
*779 FILLER_29_111
*780 FILLER_29_113
*781 FILLER_29_125
*782 FILLER_29_137
*783 FILLER_29_149
*784 FILLER_29_161
*785 FILLER_29_167
*786 FILLER_29_169
*787 FILLER_29_181
*788 FILLER_29_193
*789 FILLER_29_205
*790 FILLER_29_21
*791 FILLER_29_217
*792 FILLER_29_223
*793 FILLER_29_225
*794 FILLER_29_237
*795 FILLER_29_249
*796 FILLER_29_261
*797 FILLER_29_273
*798 FILLER_29_279
*799 FILLER_29_281
*800 FILLER_29_293
*801 FILLER_29_3
*802 FILLER_29_33
*803 FILLER_29_45
*804 FILLER_29_53
*805 FILLER_29_57
*806 FILLER_29_69
*807 FILLER_29_81
*808 FILLER_29_9
*809 FILLER_29_93
*810 FILLER_2_109
*811 FILLER_2_121
*812 FILLER_2_133
*813 FILLER_2_139
*814 FILLER_2_141
*815 FILLER_2_15
*816 FILLER_2_153
*817 FILLER_2_165
*818 FILLER_2_177
*819 FILLER_2_189
*820 FILLER_2_195
*821 FILLER_2_197
*822 FILLER_2_209
*823 FILLER_2_221
*824 FILLER_2_233
*825 FILLER_2_245
*826 FILLER_2_251
*827 FILLER_2_253
*828 FILLER_2_265
*829 FILLER_2_27
*830 FILLER_2_277
*831 FILLER_2_289
*832 FILLER_2_29
*833 FILLER_2_297
*834 FILLER_2_3
*835 FILLER_2_41
*836 FILLER_2_53
*837 FILLER_2_65
*838 FILLER_2_77
*839 FILLER_2_83
*840 FILLER_2_85
*841 FILLER_2_97
*842 FILLER_30_109
*843 FILLER_30_121
*844 FILLER_30_133
*845 FILLER_30_139
*846 FILLER_30_141
*847 FILLER_30_153
*848 FILLER_30_165
*849 FILLER_30_177
*850 FILLER_30_189
*851 FILLER_30_195
*852 FILLER_30_197
*853 FILLER_30_209
*854 FILLER_30_221
*855 FILLER_30_233
*856 FILLER_30_24
*857 FILLER_30_245
*858 FILLER_30_251
*859 FILLER_30_253
*860 FILLER_30_265
*861 FILLER_30_277
*862 FILLER_30_289
*863 FILLER_30_29
*864 FILLER_30_297
*865 FILLER_30_3
*866 FILLER_30_41
*867 FILLER_30_53
*868 FILLER_30_65
*869 FILLER_30_77
*870 FILLER_30_83
*871 FILLER_30_85
*872 FILLER_30_97
*873 FILLER_31_105
*874 FILLER_31_111
*875 FILLER_31_113
*876 FILLER_31_125
*877 FILLER_31_137
*878 FILLER_31_149
*879 FILLER_31_161
*880 FILLER_31_167
*881 FILLER_31_169
*882 FILLER_31_181
*883 FILLER_31_193
*884 FILLER_31_205
*885 FILLER_31_217
*886 FILLER_31_223
*887 FILLER_31_225
*888 FILLER_31_237
*889 FILLER_31_249
*890 FILLER_31_261
*891 FILLER_31_27
*892 FILLER_31_273
*893 FILLER_31_279
*894 FILLER_31_281
*895 FILLER_31_293
*896 FILLER_31_3
*897 FILLER_31_35
*898 FILLER_31_49
*899 FILLER_31_55
*900 FILLER_31_57
*901 FILLER_31_69
*902 FILLER_31_81
*903 FILLER_31_93
*904 FILLER_32_109
*905 FILLER_32_121
*906 FILLER_32_133
*907 FILLER_32_139
*908 FILLER_32_141
*909 FILLER_32_153
*910 FILLER_32_165
*911 FILLER_32_177
*912 FILLER_32_189
*913 FILLER_32_195
*914 FILLER_32_197
*915 FILLER_32_209
*916 FILLER_32_221
*917 FILLER_32_233
*918 FILLER_32_24
*919 FILLER_32_245
*920 FILLER_32_251
*921 FILLER_32_253
*922 FILLER_32_265
*923 FILLER_32_277
*924 FILLER_32_289
*925 FILLER_32_29
*926 FILLER_32_297
*927 FILLER_32_3
*928 FILLER_32_53
*929 FILLER_32_65
*930 FILLER_32_77
*931 FILLER_32_83
*932 FILLER_32_85
*933 FILLER_32_97
*934 FILLER_33_105
*935 FILLER_33_111
*936 FILLER_33_113
*937 FILLER_33_12
*938 FILLER_33_125
*939 FILLER_33_137
*940 FILLER_33_149
*941 FILLER_33_161
*942 FILLER_33_167
*943 FILLER_33_169
*944 FILLER_33_181
*945 FILLER_33_193
*946 FILLER_33_205
*947 FILLER_33_217
*948 FILLER_33_223
*949 FILLER_33_225
*950 FILLER_33_237
*951 FILLER_33_249
*952 FILLER_33_261
*953 FILLER_33_273
*954 FILLER_33_279
*955 FILLER_33_281
*956 FILLER_33_293
*957 FILLER_33_3
*958 FILLER_33_36
*959 FILLER_33_48
*960 FILLER_33_57
*961 FILLER_33_69
*962 FILLER_33_81
*963 FILLER_33_93
*964 FILLER_34_109
*965 FILLER_34_121
*966 FILLER_34_133
*967 FILLER_34_139
*968 FILLER_34_141
*969 FILLER_34_153
*970 FILLER_34_165
*971 FILLER_34_177
*972 FILLER_34_189
*973 FILLER_34_195
*974 FILLER_34_197
*975 FILLER_34_209
*976 FILLER_34_221
*977 FILLER_34_233
*978 FILLER_34_24
*979 FILLER_34_245
*980 FILLER_34_251
*981 FILLER_34_253
*982 FILLER_34_265
*983 FILLER_34_277
*984 FILLER_34_289
*985 FILLER_34_29
*986 FILLER_34_297
*987 FILLER_34_3
*988 FILLER_34_53
*989 FILLER_34_65
*990 FILLER_34_77
*991 FILLER_34_83
*992 FILLER_34_85
*993 FILLER_34_97
*994 FILLER_35_105
*995 FILLER_35_111
*996 FILLER_35_113
*997 FILLER_35_125
*998 FILLER_35_137
*999 FILLER_35_149
*1000 FILLER_35_15
*1001 FILLER_35_161
*1002 FILLER_35_167
*1003 FILLER_35_169
*1004 FILLER_35_181
*1005 FILLER_35_193
*1006 FILLER_35_205
*1007 FILLER_35_217
*1008 FILLER_35_223
*1009 FILLER_35_225
*1010 FILLER_35_237
*1011 FILLER_35_249
*1012 FILLER_35_261
*1013 FILLER_35_273
*1014 FILLER_35_279
*1015 FILLER_35_281
*1016 FILLER_35_293
*1017 FILLER_35_3
*1018 FILLER_35_36
*1019 FILLER_35_48
*1020 FILLER_35_57
*1021 FILLER_35_69
*1022 FILLER_35_81
*1023 FILLER_35_9
*1024 FILLER_35_93
*1025 FILLER_36_109
*1026 FILLER_36_121
*1027 FILLER_36_133
*1028 FILLER_36_139
*1029 FILLER_36_141
*1030 FILLER_36_153
*1031 FILLER_36_165
*1032 FILLER_36_177
*1033 FILLER_36_189
*1034 FILLER_36_195
*1035 FILLER_36_197
*1036 FILLER_36_209
*1037 FILLER_36_221
*1038 FILLER_36_233
*1039 FILLER_36_24
*1040 FILLER_36_245
*1041 FILLER_36_251
*1042 FILLER_36_253
*1043 FILLER_36_265
*1044 FILLER_36_277
*1045 FILLER_36_289
*1046 FILLER_36_297
*1047 FILLER_36_3
*1048 FILLER_36_35
*1049 FILLER_36_43
*1050 FILLER_36_65
*1051 FILLER_36_77
*1052 FILLER_36_83
*1053 FILLER_36_85
*1054 FILLER_36_97
*1055 FILLER_37_106
*1056 FILLER_37_113
*1057 FILLER_37_12
*1058 FILLER_37_125
*1059 FILLER_37_137
*1060 FILLER_37_149
*1061 FILLER_37_161
*1062 FILLER_37_167
*1063 FILLER_37_169
*1064 FILLER_37_181
*1065 FILLER_37_193
*1066 FILLER_37_205
*1067 FILLER_37_217
*1068 FILLER_37_223
*1069 FILLER_37_225
*1070 FILLER_37_237
*1071 FILLER_37_249
*1072 FILLER_37_261
*1073 FILLER_37_273
*1074 FILLER_37_279
*1075 FILLER_37_281
*1076 FILLER_37_293
*1077 FILLER_37_3
*1078 FILLER_37_36
*1079 FILLER_37_44
*1080 FILLER_37_51
*1081 FILLER_37_55
*1082 FILLER_37_70
*1083 FILLER_37_82
*1084 FILLER_37_94
*1085 FILLER_38_109
*1086 FILLER_38_121
*1087 FILLER_38_133
*1088 FILLER_38_139
*1089 FILLER_38_141
*1090 FILLER_38_153
*1091 FILLER_38_165
*1092 FILLER_38_177
*1093 FILLER_38_189
*1094 FILLER_38_195
*1095 FILLER_38_197
*1096 FILLER_38_209
*1097 FILLER_38_221
*1098 FILLER_38_233
*1099 FILLER_38_24
*1100 FILLER_38_245
*1101 FILLER_38_251
*1102 FILLER_38_253
*1103 FILLER_38_265
*1104 FILLER_38_277
*1105 FILLER_38_289
*1106 FILLER_38_29
*1107 FILLER_38_297
*1108 FILLER_38_3
*1109 FILLER_38_53
*1110 FILLER_38_62
*1111 FILLER_38_74
*1112 FILLER_38_82
*1113 FILLER_38_85
*1114 FILLER_38_97
*1115 FILLER_39_105
*1116 FILLER_39_111
*1117 FILLER_39_113
*1118 FILLER_39_12
*1119 FILLER_39_125
*1120 FILLER_39_137
*1121 FILLER_39_149
*1122 FILLER_39_161
*1123 FILLER_39_167
*1124 FILLER_39_169
*1125 FILLER_39_181
*1126 FILLER_39_193
*1127 FILLER_39_205
*1128 FILLER_39_217
*1129 FILLER_39_223
*1130 FILLER_39_225
*1131 FILLER_39_237
*1132 FILLER_39_249
*1133 FILLER_39_261
*1134 FILLER_39_273
*1135 FILLER_39_279
*1136 FILLER_39_281
*1137 FILLER_39_293
*1138 FILLER_39_3
*1139 FILLER_39_36
*1140 FILLER_39_46
*1141 FILLER_39_54
*1142 FILLER_39_62
*1143 FILLER_39_69
*1144 FILLER_39_81
*1145 FILLER_39_93
*1146 FILLER_3_105
*1147 FILLER_3_111
*1148 FILLER_3_113
*1149 FILLER_3_125
*1150 FILLER_3_137
*1151 FILLER_3_149
*1152 FILLER_3_15
*1153 FILLER_3_161
*1154 FILLER_3_167
*1155 FILLER_3_169
*1156 FILLER_3_181
*1157 FILLER_3_193
*1158 FILLER_3_205
*1159 FILLER_3_217
*1160 FILLER_3_223
*1161 FILLER_3_225
*1162 FILLER_3_237
*1163 FILLER_3_249
*1164 FILLER_3_261
*1165 FILLER_3_27
*1166 FILLER_3_273
*1167 FILLER_3_279
*1168 FILLER_3_281
*1169 FILLER_3_293
*1170 FILLER_3_3
*1171 FILLER_3_39
*1172 FILLER_3_51
*1173 FILLER_3_55
*1174 FILLER_3_57
*1175 FILLER_3_69
*1176 FILLER_3_81
*1177 FILLER_3_93
*1178 FILLER_40_109
*1179 FILLER_40_121
*1180 FILLER_40_133
*1181 FILLER_40_139
*1182 FILLER_40_141
*1183 FILLER_40_153
*1184 FILLER_40_165
*1185 FILLER_40_177
*1186 FILLER_40_189
*1187 FILLER_40_195
*1188 FILLER_40_197
*1189 FILLER_40_209
*1190 FILLER_40_221
*1191 FILLER_40_233
*1192 FILLER_40_24
*1193 FILLER_40_245
*1194 FILLER_40_251
*1195 FILLER_40_253
*1196 FILLER_40_265
*1197 FILLER_40_277
*1198 FILLER_40_289
*1199 FILLER_40_297
*1200 FILLER_40_3
*1201 FILLER_40_38
*1202 FILLER_40_44
*1203 FILLER_40_65
*1204 FILLER_40_73
*1205 FILLER_40_81
*1206 FILLER_40_85
*1207 FILLER_40_97
*1208 FILLER_41_105
*1209 FILLER_41_111
*1210 FILLER_41_113
*1211 FILLER_41_125
*1212 FILLER_41_137
*1213 FILLER_41_149
*1214 FILLER_41_161
*1215 FILLER_41_167
*1216 FILLER_41_169
*1217 FILLER_41_17
*1218 FILLER_41_181
*1219 FILLER_41_193
*1220 FILLER_41_205
*1221 FILLER_41_217
*1222 FILLER_41_223
*1223 FILLER_41_225
*1224 FILLER_41_237
*1225 FILLER_41_249
*1226 FILLER_41_261
*1227 FILLER_41_273
*1228 FILLER_41_279
*1229 FILLER_41_281
*1230 FILLER_41_293
*1231 FILLER_41_3
*1232 FILLER_41_41
*1233 FILLER_41_52
*1234 FILLER_41_57
*1235 FILLER_41_81
*1236 FILLER_41_93
*1237 FILLER_42_109
*1238 FILLER_42_121
*1239 FILLER_42_133
*1240 FILLER_42_139
*1241 FILLER_42_141
*1242 FILLER_42_153
*1243 FILLER_42_165
*1244 FILLER_42_177
*1245 FILLER_42_189
*1246 FILLER_42_195
*1247 FILLER_42_197
*1248 FILLER_42_209
*1249 FILLER_42_221
*1250 FILLER_42_233
*1251 FILLER_42_24
*1252 FILLER_42_245
*1253 FILLER_42_251
*1254 FILLER_42_253
*1255 FILLER_42_265
*1256 FILLER_42_277
*1257 FILLER_42_289
*1258 FILLER_42_297
*1259 FILLER_42_3
*1260 FILLER_42_39
*1261 FILLER_42_65
*1262 FILLER_42_74
*1263 FILLER_42_82
*1264 FILLER_42_85
*1265 FILLER_42_97
*1266 FILLER_43_105
*1267 FILLER_43_111
*1268 FILLER_43_113
*1269 FILLER_43_125
*1270 FILLER_43_137
*1271 FILLER_43_149
*1272 FILLER_43_161
*1273 FILLER_43_167
*1274 FILLER_43_169
*1275 FILLER_43_181
*1276 FILLER_43_193
*1277 FILLER_43_205
*1278 FILLER_43_217
*1279 FILLER_43_223
*1280 FILLER_43_225
*1281 FILLER_43_237
*1282 FILLER_43_249
*1283 FILLER_43_261
*1284 FILLER_43_27
*1285 FILLER_43_273
*1286 FILLER_43_279
*1287 FILLER_43_281
*1288 FILLER_43_293
*1289 FILLER_43_3
*1290 FILLER_43_51
*1291 FILLER_43_55
*1292 FILLER_43_57
*1293 FILLER_43_81
*1294 FILLER_43_93
*1295 FILLER_44_109
*1296 FILLER_44_121
*1297 FILLER_44_133
*1298 FILLER_44_139
*1299 FILLER_44_141
*1300 FILLER_44_153
*1301 FILLER_44_165
*1302 FILLER_44_177
*1303 FILLER_44_189
*1304 FILLER_44_195
*1305 FILLER_44_197
*1306 FILLER_44_209
*1307 FILLER_44_221
*1308 FILLER_44_233
*1309 FILLER_44_24
*1310 FILLER_44_245
*1311 FILLER_44_251
*1312 FILLER_44_253
*1313 FILLER_44_265
*1314 FILLER_44_277
*1315 FILLER_44_289
*1316 FILLER_44_29
*1317 FILLER_44_297
*1318 FILLER_44_3
*1319 FILLER_44_53
*1320 FILLER_44_77
*1321 FILLER_44_83
*1322 FILLER_44_85
*1323 FILLER_44_97
*1324 FILLER_45_105
*1325 FILLER_45_111
*1326 FILLER_45_113
*1327 FILLER_45_12
*1328 FILLER_45_125
*1329 FILLER_45_137
*1330 FILLER_45_149
*1331 FILLER_45_161
*1332 FILLER_45_167
*1333 FILLER_45_169
*1334 FILLER_45_181
*1335 FILLER_45_193
*1336 FILLER_45_205
*1337 FILLER_45_217
*1338 FILLER_45_223
*1339 FILLER_45_225
*1340 FILLER_45_237
*1341 FILLER_45_249
*1342 FILLER_45_261
*1343 FILLER_45_273
*1344 FILLER_45_279
*1345 FILLER_45_281
*1346 FILLER_45_293
*1347 FILLER_45_3
*1348 FILLER_45_36
*1349 FILLER_45_50
*1350 FILLER_45_57
*1351 FILLER_45_81
*1352 FILLER_45_93
*1353 FILLER_46_109
*1354 FILLER_46_121
*1355 FILLER_46_133
*1356 FILLER_46_139
*1357 FILLER_46_141
*1358 FILLER_46_153
*1359 FILLER_46_165
*1360 FILLER_46_177
*1361 FILLER_46_189
*1362 FILLER_46_195
*1363 FILLER_46_197
*1364 FILLER_46_209
*1365 FILLER_46_221
*1366 FILLER_46_233
*1367 FILLER_46_24
*1368 FILLER_46_245
*1369 FILLER_46_251
*1370 FILLER_46_253
*1371 FILLER_46_265
*1372 FILLER_46_277
*1373 FILLER_46_289
*1374 FILLER_46_29
*1375 FILLER_46_297
*1376 FILLER_46_3
*1377 FILLER_46_53
*1378 FILLER_46_77
*1379 FILLER_46_83
*1380 FILLER_46_85
*1381 FILLER_46_97
*1382 FILLER_47_10
*1383 FILLER_47_104
*1384 FILLER_47_113
*1385 FILLER_47_125
*1386 FILLER_47_137
*1387 FILLER_47_149
*1388 FILLER_47_161
*1389 FILLER_47_167
*1390 FILLER_47_169
*1391 FILLER_47_181
*1392 FILLER_47_193
*1393 FILLER_47_205
*1394 FILLER_47_217
*1395 FILLER_47_223
*1396 FILLER_47_225
*1397 FILLER_47_237
*1398 FILLER_47_249
*1399 FILLER_47_261
*1400 FILLER_47_273
*1401 FILLER_47_279
*1402 FILLER_47_281
*1403 FILLER_47_293
*1404 FILLER_47_3
*1405 FILLER_47_34
*1406 FILLER_47_51
*1407 FILLER_47_55
*1408 FILLER_47_61
*1409 FILLER_47_68
*1410 FILLER_47_80
*1411 FILLER_47_92
*1412 FILLER_48_109
*1413 FILLER_48_121
*1414 FILLER_48_133
*1415 FILLER_48_139
*1416 FILLER_48_141
*1417 FILLER_48_153
*1418 FILLER_48_165
*1419 FILLER_48_177
*1420 FILLER_48_189
*1421 FILLER_48_195
*1422 FILLER_48_197
*1423 FILLER_48_209
*1424 FILLER_48_221
*1425 FILLER_48_233
*1426 FILLER_48_24
*1427 FILLER_48_245
*1428 FILLER_48_251
*1429 FILLER_48_253
*1430 FILLER_48_265
*1431 FILLER_48_277
*1432 FILLER_48_289
*1433 FILLER_48_29
*1434 FILLER_48_297
*1435 FILLER_48_3
*1436 FILLER_48_53
*1437 FILLER_48_60
*1438 FILLER_48_72
*1439 FILLER_48_85
*1440 FILLER_48_97
*1441 FILLER_49_105
*1442 FILLER_49_111
*1443 FILLER_49_113
*1444 FILLER_49_125
*1445 FILLER_49_137
*1446 FILLER_49_149
*1447 FILLER_49_16
*1448 FILLER_49_161
*1449 FILLER_49_167
*1450 FILLER_49_169
*1451 FILLER_49_181
*1452 FILLER_49_193
*1453 FILLER_49_205
*1454 FILLER_49_217
*1455 FILLER_49_223
*1456 FILLER_49_225
*1457 FILLER_49_237
*1458 FILLER_49_249
*1459 FILLER_49_261
*1460 FILLER_49_273
*1461 FILLER_49_279
*1462 FILLER_49_281
*1463 FILLER_49_293
*1464 FILLER_49_40
*1465 FILLER_49_51
*1466 FILLER_49_55
*1467 FILLER_49_57
*1468 FILLER_49_69
*1469 FILLER_49_81
*1470 FILLER_49_93
*1471 FILLER_4_109
*1472 FILLER_4_121
*1473 FILLER_4_133
*1474 FILLER_4_139
*1475 FILLER_4_141
*1476 FILLER_4_15
*1477 FILLER_4_153
*1478 FILLER_4_165
*1479 FILLER_4_177
*1480 FILLER_4_189
*1481 FILLER_4_195
*1482 FILLER_4_197
*1483 FILLER_4_209
*1484 FILLER_4_221
*1485 FILLER_4_233
*1486 FILLER_4_245
*1487 FILLER_4_251
*1488 FILLER_4_253
*1489 FILLER_4_265
*1490 FILLER_4_27
*1491 FILLER_4_277
*1492 FILLER_4_289
*1493 FILLER_4_29
*1494 FILLER_4_297
*1495 FILLER_4_3
*1496 FILLER_4_41
*1497 FILLER_4_53
*1498 FILLER_4_65
*1499 FILLER_4_77
*1500 FILLER_4_83
*1501 FILLER_4_85
*1502 FILLER_4_97
*1503 FILLER_50_109
*1504 FILLER_50_121
*1505 FILLER_50_133
*1506 FILLER_50_139
*1507 FILLER_50_141
*1508 FILLER_50_153
*1509 FILLER_50_165
*1510 FILLER_50_177
*1511 FILLER_50_189
*1512 FILLER_50_195
*1513 FILLER_50_197
*1514 FILLER_50_209
*1515 FILLER_50_221
*1516 FILLER_50_233
*1517 FILLER_50_24
*1518 FILLER_50_245
*1519 FILLER_50_251
*1520 FILLER_50_253
*1521 FILLER_50_265
*1522 FILLER_50_277
*1523 FILLER_50_289
*1524 FILLER_50_29
*1525 FILLER_50_297
*1526 FILLER_50_3
*1527 FILLER_50_53
*1528 FILLER_50_65
*1529 FILLER_50_77
*1530 FILLER_50_83
*1531 FILLER_50_85
*1532 FILLER_50_97
*1533 FILLER_51_105
*1534 FILLER_51_111
*1535 FILLER_51_113
*1536 FILLER_51_125
*1537 FILLER_51_137
*1538 FILLER_51_149
*1539 FILLER_51_15
*1540 FILLER_51_161
*1541 FILLER_51_167
*1542 FILLER_51_169
*1543 FILLER_51_181
*1544 FILLER_51_193
*1545 FILLER_51_205
*1546 FILLER_51_217
*1547 FILLER_51_223
*1548 FILLER_51_225
*1549 FILLER_51_237
*1550 FILLER_51_249
*1551 FILLER_51_261
*1552 FILLER_51_273
*1553 FILLER_51_279
*1554 FILLER_51_281
*1555 FILLER_51_293
*1556 FILLER_51_3
*1557 FILLER_51_36
*1558 FILLER_51_48
*1559 FILLER_51_57
*1560 FILLER_51_69
*1561 FILLER_51_81
*1562 FILLER_51_9
*1563 FILLER_51_93
*1564 FILLER_52_109
*1565 FILLER_52_121
*1566 FILLER_52_133
*1567 FILLER_52_139
*1568 FILLER_52_141
*1569 FILLER_52_153
*1570 FILLER_52_165
*1571 FILLER_52_177
*1572 FILLER_52_189
*1573 FILLER_52_195
*1574 FILLER_52_197
*1575 FILLER_52_209
*1576 FILLER_52_221
*1577 FILLER_52_233
*1578 FILLER_52_24
*1579 FILLER_52_245
*1580 FILLER_52_251
*1581 FILLER_52_253
*1582 FILLER_52_265