*SPEF "ieee 1481-1999"
*DESIGN "user_module_347497504164545108"
*DATE "11:11:11 Fri 11 11, 1111"
*VENDOR "OpenRCX"
*PROGRAM "Parallel Extraction"
*VERSION "1.0"
*DESIGN_FLOW "NAME_SCOPE LOCAL" "PIN_CAP NONE"
*DIVIDER /
*DELIMITER :
*BUS_DELIMITER []
*T_UNIT 1 NS
*C_UNIT 1 PF
*R_UNIT 1 OHM
*L_UNIT 1 HENRY

*NAME_MAP
*1 io_in[0]
*2 io_in[1]
*3 io_in[2]
*4 io_in[3]
*5 io_in[4]
*6 io_in[5]
*7 io_in[6]
*8 io_in[7]
*9 io_out[0]
*10 io_out[1]
*11 io_out[2]
*12 io_out[3]
*13 io_out[4]
*14 io_out[5]
*15 io_out[6]
*16 net7
*19 _00_
*20 _01_
*21 _02_
*22 _03_
*23 _04_
*24 _05_
*25 _06_
*26 _07_
*27 _08_
*28 _09_
*29 _10_
*30 _11_
*31 _12_
*32 _13_
*33 _14_
*34 _15_
*35 _16_
*36 _17_
*37 _18_
*38 _19_
*39 _20_
*40 _21_
*41 _22_
*42 _23_
*43 _24_
*44 _25_
*45 _26_
*46 _27_
*47 _28_
*48 _29_
*49 _30_
*50 _31_
*51 _32_
*52 _33_
*53 clknet_0_io_in[0]
*54 clknet_1_0__leaf_io_in[0]
*55 clknet_1_1__leaf_io_in[0]
*56 flipflop10\.d
*57 flipflop10\.q
*58 flipflop4\.d
*59 flipflop4\.q
*60 flipflop7\.clk
*61 flipflop7\.d
*62 flipflop7\.q
*63 flipflop8\.clk
*64 flipflop8\.d
*65 flipflop8\.q
*66 flipflop9\.clk
*67 flipflop9\.d
*68 flipflop9\.q
*69 gate103\.out
*70 gate112\.out
*71 gate114\.out
*72 gate116\.out
*73 gate75\.out
*74 gate80\.out
*75 gate94\.out
*76 net1
*77 net2
*78 net3
*79 net4
*80 net5
*81 net6
*82 FILLER_0_109
*83 FILLER_0_113
*84 FILLER_0_125
*85 FILLER_0_137
*86 FILLER_0_141
*87 FILLER_0_153
*88 FILLER_0_165
*89 FILLER_0_169
*90 FILLER_0_181
*91 FILLER_0_193
*92 FILLER_0_197
*93 FILLER_0_209
*94 FILLER_0_221
*95 FILLER_0_225
*96 FILLER_0_237
*97 FILLER_0_24
*98 FILLER_0_249
*99 FILLER_0_253
*100 FILLER_0_265
*101 FILLER_0_277
*102 FILLER_0_281
*103 FILLER_0_293
*104 FILLER_0_3
*105 FILLER_0_45
*106 FILLER_0_53
*107 FILLER_0_57
*108 FILLER_0_69
*109 FILLER_0_7
*110 FILLER_0_81
*111 FILLER_0_85
*112 FILLER_0_97
*113 FILLER_10_109
*114 FILLER_10_121
*115 FILLER_10_133
*116 FILLER_10_139
*117 FILLER_10_141
*118 FILLER_10_15
*119 FILLER_10_153
*120 FILLER_10_165
*121 FILLER_10_177
*122 FILLER_10_189
*123 FILLER_10_195
*124 FILLER_10_197
*125 FILLER_10_209
*126 FILLER_10_221
*127 FILLER_10_233
*128 FILLER_10_245
*129 FILLER_10_251
*130 FILLER_10_253
*131 FILLER_10_265
*132 FILLER_10_27
*133 FILLER_10_277
*134 FILLER_10_289
*135 FILLER_10_29
*136 FILLER_10_297
*137 FILLER_10_3
*138 FILLER_10_41
*139 FILLER_10_53
*140 FILLER_10_65
*141 FILLER_10_77
*142 FILLER_10_83
*143 FILLER_10_85
*144 FILLER_10_97
*145 FILLER_11_105
*146 FILLER_11_111
*147 FILLER_11_113
*148 FILLER_11_125
*149 FILLER_11_137
*150 FILLER_11_149
*151 FILLER_11_15
*152 FILLER_11_161
*153 FILLER_11_167
*154 FILLER_11_169
*155 FILLER_11_181
*156 FILLER_11_193
*157 FILLER_11_205
*158 FILLER_11_217
*159 FILLER_11_223
*160 FILLER_11_225
*161 FILLER_11_237
*162 FILLER_11_249
*163 FILLER_11_261
*164 FILLER_11_27
*165 FILLER_11_273
*166 FILLER_11_279
*167 FILLER_11_281
*168 FILLER_11_293
*169 FILLER_11_3
*170 FILLER_11_39
*171 FILLER_11_51
*172 FILLER_11_55
*173 FILLER_11_57
*174 FILLER_11_69
*175 FILLER_11_81
*176 FILLER_11_93
*177 FILLER_12_109
*178 FILLER_12_121
*179 FILLER_12_133
*180 FILLER_12_139
*181 FILLER_12_141
*182 FILLER_12_153
*183 FILLER_12_165
*184 FILLER_12_177
*185 FILLER_12_18
*186 FILLER_12_189
*187 FILLER_12_195
*188 FILLER_12_197
*189 FILLER_12_209
*190 FILLER_12_221
*191 FILLER_12_233
*192 FILLER_12_245
*193 FILLER_12_251
*194 FILLER_12_253
*195 FILLER_12_26
*196 FILLER_12_265
*197 FILLER_12_277
*198 FILLER_12_289
*199 FILLER_12_29
*200 FILLER_12_297
*201 FILLER_12_41
*202 FILLER_12_53
*203 FILLER_12_6
*204 FILLER_12_65
*205 FILLER_12_77
*206 FILLER_12_83
*207 FILLER_12_85
*208 FILLER_12_97
*209 FILLER_13_105
*210 FILLER_13_111
*211 FILLER_13_113
*212 FILLER_13_125
*213 FILLER_13_137
*214 FILLER_13_149
*215 FILLER_13_15
*216 FILLER_13_161
*217 FILLER_13_167
*218 FILLER_13_169
*219 FILLER_13_181
*220 FILLER_13_193
*221 FILLER_13_205
*222 FILLER_13_217
*223 FILLER_13_223
*224 FILLER_13_225
*225 FILLER_13_237
*226 FILLER_13_249
*227 FILLER_13_261
*228 FILLER_13_27
*229 FILLER_13_273
*230 FILLER_13_279
*231 FILLER_13_281
*232 FILLER_13_293
*233 FILLER_13_3
*234 FILLER_13_39
*235 FILLER_13_51
*236 FILLER_13_55
*237 FILLER_13_57
*238 FILLER_13_69
*239 FILLER_13_81
*240 FILLER_13_93
*241 FILLER_14_109
*242 FILLER_14_121
*243 FILLER_14_133
*244 FILLER_14_139
*245 FILLER_14_141
*246 FILLER_14_15
*247 FILLER_14_153
*248 FILLER_14_165
*249 FILLER_14_177
*250 FILLER_14_189
*251 FILLER_14_195
*252 FILLER_14_197
*253 FILLER_14_209
*254 FILLER_14_221
*255 FILLER_14_233
*256 FILLER_14_245
*257 FILLER_14_251
*258 FILLER_14_253
*259 FILLER_14_265
*260 FILLER_14_27
*261 FILLER_14_277
*262 FILLER_14_289
*263 FILLER_14_29
*264 FILLER_14_297
*265 FILLER_14_3
*266 FILLER_14_41
*267 FILLER_14_53
*268 FILLER_14_65
*269 FILLER_14_77
*270 FILLER_14_83
*271 FILLER_14_85
*272 FILLER_14_97
*273 FILLER_15_105
*274 FILLER_15_111
*275 FILLER_15_113
*276 FILLER_15_125
*277 FILLER_15_137
*278 FILLER_15_149
*279 FILLER_15_15
*280 FILLER_15_161
*281 FILLER_15_167
*282 FILLER_15_169
*283 FILLER_15_181
*284 FILLER_15_193
*285 FILLER_15_205
*286 FILLER_15_217
*287 FILLER_15_223
*288 FILLER_15_225
*289 FILLER_15_237
*290 FILLER_15_249
*291 FILLER_15_261
*292 FILLER_15_27
*293 FILLER_15_273
*294 FILLER_15_279
*295 FILLER_15_281
*296 FILLER_15_293
*297 FILLER_15_3
*298 FILLER_15_39
*299 FILLER_15_51
*300 FILLER_15_55
*301 FILLER_15_57
*302 FILLER_15_69
*303 FILLER_15_81
*304 FILLER_15_93
*305 FILLER_16_109
*306 FILLER_16_121
*307 FILLER_16_133
*308 FILLER_16_139
*309 FILLER_16_141
*310 FILLER_16_153
*311 FILLER_16_165
*312 FILLER_16_177
*313 FILLER_16_18
*314 FILLER_16_189
*315 FILLER_16_195
*316 FILLER_16_197
*317 FILLER_16_209
*318 FILLER_16_221
*319 FILLER_16_233
*320 FILLER_16_245
*321 FILLER_16_251
*322 FILLER_16_253
*323 FILLER_16_26
*324 FILLER_16_265
*325 FILLER_16_277
*326 FILLER_16_289
*327 FILLER_16_29
*328 FILLER_16_297
*329 FILLER_16_41
*330 FILLER_16_53
*331 FILLER_16_6
*332 FILLER_16_65
*333 FILLER_16_77
*334 FILLER_16_83
*335 FILLER_16_85
*336 FILLER_16_97
*337 FILLER_17_105
*338 FILLER_17_111
*339 FILLER_17_113
*340 FILLER_17_125
*341 FILLER_17_137
*342 FILLER_17_149
*343 FILLER_17_15
*344 FILLER_17_161
*345 FILLER_17_167
*346 FILLER_17_169
*347 FILLER_17_181
*348 FILLER_17_193
*349 FILLER_17_205
*350 FILLER_17_217
*351 FILLER_17_223
*352 FILLER_17_225
*353 FILLER_17_237
*354 FILLER_17_249
*355 FILLER_17_261
*356 FILLER_17_273
*357 FILLER_17_279
*358 FILLER_17_28
*359 FILLER_17_281
*360 FILLER_17_293
*361 FILLER_17_3
*362 FILLER_17_40
*363 FILLER_17_52
*364 FILLER_17_57
*365 FILLER_17_69
*366 FILLER_17_81
*367 FILLER_17_93
*368 FILLER_18_109
*369 FILLER_18_121
*370 FILLER_18_133
*371 FILLER_18_139
*372 FILLER_18_141
*373 FILLER_18_15
*374 FILLER_18_153
*375 FILLER_18_165
*376 FILLER_18_177
*377 FILLER_18_189
*378 FILLER_18_195
*379 FILLER_18_197
*380 FILLER_18_20
*381 FILLER_18_209
*382 FILLER_18_221
*383 FILLER_18_233
*384 FILLER_18_245
*385 FILLER_18_251
*386 FILLER_18_253
*387 FILLER_18_265
*388 FILLER_18_277
*389 FILLER_18_289
*390 FILLER_18_29
*391 FILLER_18_297
*392 FILLER_18_3
*393 FILLER_18_41
*394 FILLER_18_53
*395 FILLER_18_65
*396 FILLER_18_77
*397 FILLER_18_83
*398 FILLER_18_85
*399 FILLER_18_97
*400 FILLER_19_105
*401 FILLER_19_111
*402 FILLER_19_113
*403 FILLER_19_12
*404 FILLER_19_125
*405 FILLER_19_137
*406 FILLER_19_149
*407 FILLER_19_161
*408 FILLER_19_167
*409 FILLER_19_169
*410 FILLER_19_181
*411 FILLER_19_193
*412 FILLER_19_205
*413 FILLER_19_217
*414 FILLER_19_223
*415 FILLER_19_225
*416 FILLER_19_237
*417 FILLER_19_249
*418 FILLER_19_25
*419 FILLER_19_261
*420 FILLER_19_273
*421 FILLER_19_279
*422 FILLER_19_281
*423 FILLER_19_293
*424 FILLER_19_3
*425 FILLER_19_37
*426 FILLER_19_49
*427 FILLER_19_55
*428 FILLER_19_57
*429 FILLER_19_69
*430 FILLER_19_81
*431 FILLER_19_93
*432 FILLER_1_105
*433 FILLER_1_111
*434 FILLER_1_113
*435 FILLER_1_125
*436 FILLER_1_137
*437 FILLER_1_149
*438 FILLER_1_15
*439 FILLER_1_161
*440 FILLER_1_167
*441 FILLER_1_169
*442 FILLER_1_181
*443 FILLER_1_193
*444 FILLER_1_205
*445 FILLER_1_217
*446 FILLER_1_223
*447 FILLER_1_225
*448 FILLER_1_237
*449 FILLER_1_249
*450 FILLER_1_261
*451 FILLER_1_273
*452 FILLER_1_279
*453 FILLER_1_281
*454 FILLER_1_293
*455 FILLER_1_3
*456 FILLER_1_36
*457 FILLER_1_48
*458 FILLER_1_57
*459 FILLER_1_69
*460 FILLER_1_81
*461 FILLER_1_93
*462 FILLER_20_10
*463 FILLER_20_109
*464 FILLER_20_121
*465 FILLER_20_133
*466 FILLER_20_139
*467 FILLER_20_14
*468 FILLER_20_141
*469 FILLER_20_153
*470 FILLER_20_165
*471 FILLER_20_177
*472 FILLER_20_189
*473 FILLER_20_195
*474 FILLER_20_197
*475 FILLER_20_209
*476 FILLER_20_221
*477 FILLER_20_233
*478 FILLER_20_245
*479 FILLER_20_251
*480 FILLER_20_253
*481 FILLER_20_26
*482 FILLER_20_265
*483 FILLER_20_277
*484 FILLER_20_289
*485 FILLER_20_29
*486 FILLER_20_297
*487 FILLER_20_41
*488 FILLER_20_53
*489 FILLER_20_6
*490 FILLER_20_65
*491 FILLER_20_77
*492 FILLER_20_83
*493 FILLER_20_85
*494 FILLER_20_97
*495 FILLER_21_10
*496 FILLER_21_105
*497 FILLER_21_111
*498 FILLER_21_113
*499 FILLER_21_125
*500 FILLER_21_137
*501 FILLER_21_149
*502 FILLER_21_161
*503 FILLER_21_167
*504 FILLER_21_169
*505 FILLER_21_181
*506 FILLER_21_193
*507 FILLER_21_20
*508 FILLER_21_205
*509 FILLER_21_217
*510 FILLER_21_223
*511 FILLER_21_225
*512 FILLER_21_237
*513 FILLER_21_249
*514 FILLER_21_261
*515 FILLER_21_273
*516 FILLER_21_279
*517 FILLER_21_281
*518 FILLER_21_29
*519 FILLER_21_293
*520 FILLER_21_3
*521 FILLER_21_41
*522 FILLER_21_53
*523 FILLER_21_57
*524 FILLER_21_69
*525 FILLER_21_81
*526 FILLER_21_93
*527 FILLER_22_109
*528 FILLER_22_121
*529 FILLER_22_133
*530 FILLER_22_139
*531 FILLER_22_141
*532 FILLER_22_153
*533 FILLER_22_165
*534 FILLER_22_177
*535 FILLER_22_189
*536 FILLER_22_19
*537 FILLER_22_195
*538 FILLER_22_197
*539 FILLER_22_209
*540 FILLER_22_221
*541 FILLER_22_233
*542 FILLER_22_245
*543 FILLER_22_251
*544 FILLER_22_253
*545 FILLER_22_265
*546 FILLER_22_27
*547 FILLER_22_277
*548 FILLER_22_289
*549 FILLER_22_29
*550 FILLER_22_297
*551 FILLER_22_3
*552 FILLER_22_33
*553 FILLER_22_37
*554 FILLER_22_49
*555 FILLER_22_61
*556 FILLER_22_73
*557 FILLER_22_81
*558 FILLER_22_85
*559 FILLER_22_97
*560 FILLER_23_105
*561 FILLER_23_111
*562 FILLER_23_113
*563 FILLER_23_125
*564 FILLER_23_137
*565 FILLER_23_14
*566 FILLER_23_149
*567 FILLER_23_161
*568 FILLER_23_167
*569 FILLER_23_169
*570 FILLER_23_181
*571 FILLER_23_193
*572 FILLER_23_205
*573 FILLER_23_217
*574 FILLER_23_223
*575 FILLER_23_225
*576 FILLER_23_23
*577 FILLER_23_237
*578 FILLER_23_249
*579 FILLER_23_261
*580 FILLER_23_273
*581 FILLER_23_279
*582 FILLER_23_281
*583 FILLER_23_29
*584 FILLER_23_293
*585 FILLER_23_40
*586 FILLER_23_52
*587 FILLER_23_57
*588 FILLER_23_6
*589 FILLER_23_69
*590 FILLER_23_81
*591 FILLER_23_93
*592 FILLER_24_109
*593 FILLER_24_121
*594 FILLER_24_133
*595 FILLER_24_139
*596 FILLER_24_141
*597 FILLER_24_153
*598 FILLER_24_165
*599 FILLER_24_177
*600 FILLER_24_18
*601 FILLER_24_189
*602 FILLER_24_195
*603 FILLER_24_197
*604 FILLER_24_209
*605 FILLER_24_221
*606 FILLER_24_233
*607 FILLER_24_245
*608 FILLER_24_251
*609 FILLER_24_253
*610 FILLER_24_26
*611 FILLER_24_265
*612 FILLER_24_277
*613 FILLER_24_289
*614 FILLER_24_297
*615 FILLER_24_3
*616 FILLER_24_35
*617 FILLER_24_47
*618 FILLER_24_59
*619 FILLER_24_71
*620 FILLER_24_8
*621 FILLER_24_83
*622 FILLER_24_85
*623 FILLER_24_97
*624 FILLER_25_105
*625 FILLER_25_111
*626 FILLER_25_113
*627 FILLER_25_125
*628 FILLER_25_137
*629 FILLER_25_149
*630 FILLER_25_16
*631 FILLER_25_161
*632 FILLER_25_167
*633 FILLER_25_169
*634 FILLER_25_181
*635 FILLER_25_193
*636 FILLER_25_205
*637 FILLER_25_217
*638 FILLER_25_223
*639 FILLER_25_225
*640 FILLER_25_237
*641 FILLER_25_249
*642 FILLER_25_261
*643 FILLER_25_273
*644 FILLER_25_279
*645 FILLER_25_28
*646 FILLER_25_281
*647 FILLER_25_293
*648 FILLER_25_34
*649 FILLER_25_39
*650 FILLER_25_51
*651 FILLER_25_55
*652 FILLER_25_57
*653 FILLER_25_69
*654 FILLER_25_81
*655 FILLER_25_9
*656 FILLER_25_93
*657 FILLER_26_10
*658 FILLER_26_109
*659 FILLER_26_121
*660 FILLER_26_133
*661 FILLER_26_139
*662 FILLER_26_141
*663 FILLER_26_153
*664 FILLER_26_165
*665 FILLER_26_177
*666 FILLER_26_189
*667 FILLER_26_195
*668 FILLER_26_197
*669 FILLER_26_209
*670 FILLER_26_22
*671 FILLER_26_221
*672 FILLER_26_233
*673 FILLER_26_245
*674 FILLER_26_251
*675 FILLER_26_253
*676 FILLER_26_265
*677 FILLER_26_277
*678 FILLER_26_289
*679 FILLER_26_297
*680 FILLER_26_3
*681 FILLER_26_39
*682 FILLER_26_47
*683 FILLER_26_59
*684 FILLER_26_71
*685 FILLER_26_83
*686 FILLER_26_85
*687 FILLER_26_97
*688 FILLER_27_105
*689 FILLER_27_111
*690 FILLER_27_113
*691 FILLER_27_125
*692 FILLER_27_137
*693 FILLER_27_149
*694 FILLER_27_16
*695 FILLER_27_161
*696 FILLER_27_167
*697 FILLER_27_169
*698 FILLER_27_181
*699 FILLER_27_193
*700 FILLER_27_205
*701 FILLER_27_217
*702 FILLER_27_223
*703 FILLER_27_225
*704 FILLER_27_237
*705 FILLER_27_249
*706 FILLER_27_261
*707 FILLER_27_273
*708 FILLER_27_279
*709 FILLER_27_28
*710 FILLER_27_281
*711 FILLER_27_293
*712 FILLER_27_3
*713 FILLER_27_40
*714 FILLER_27_52
*715 FILLER_27_57
*716 FILLER_27_69
*717 FILLER_27_81
*718 FILLER_27_9
*719 FILLER_27_93
*720 FILLER_28_109
*721 FILLER_28_121
*722 FILLER_28_133
*723 FILLER_28_139
*724 FILLER_28_141
*725 FILLER_28_15
*726 FILLER_28_153
*727 FILLER_28_165
*728 FILLER_28_177
*729 FILLER_28_189
*730 FILLER_28_195
*731 FILLER_28_197
*732 FILLER_28_209
*733 FILLER_28_221
*734 FILLER_28_233
*735 FILLER_28_24
*736 FILLER_28_245
*737 FILLER_28_251
*738 FILLER_28_253
*739 FILLER_28_265
*740 FILLER_28_277
*741 FILLER_28_289
*742 FILLER_28_297
*743 FILLER_28_35
*744 FILLER_28_47
*745 FILLER_28_59
*746 FILLER_28_6
*747 FILLER_28_71
*748 FILLER_28_83
*749 FILLER_28_85
*750 FILLER_28_97
*751 FILLER_29_104
*752 FILLER_29_113
*753 FILLER_29_125
*754 FILLER_29_137
*755 FILLER_29_149
*756 FILLER_29_16
*757 FILLER_29_161
*758 FILLER_29_167
*759 FILLER_29_169
*760 FILLER_29_181
*761 FILLER_29_193
*762 FILLER_29_205
*763 FILLER_29_217
*764 FILLER_29_223
*765 FILLER_29_225
*766 FILLER_29_237
*767 FILLER_29_249
*768 FILLER_29_261
*769 FILLER_29_273
*770 FILLER_29_279
*771 FILLER_29_28
*772 FILLER_29_281
*773 FILLER_29_293
*774 FILLER_29_40
*775 FILLER_29_52
*776 FILLER_29_57
*777 FILLER_29_63
*778 FILLER_29_68
*779 FILLER_29_7
*780 FILLER_29_80
*781 FILLER_29_92
*782 FILLER_2_109
*783 FILLER_2_121
*784 FILLER_2_133
*785 FILLER_2_139
*786 FILLER_2_141
*787 FILLER_2_153
*788 FILLER_2_165
*789 FILLER_2_177
*790 FILLER_2_189
*791 FILLER_2_195
*792 FILLER_2_197
*793 FILLER_2_209
*794 FILLER_2_221
*795 FILLER_2_233
*796 FILLER_2_24
*797 FILLER_2_245
*798 FILLER_2_251
*799 FILLER_2_253
*800 FILLER_2_265
*801 FILLER_2_277
*802 FILLER_2_289
*803 FILLER_2_297
*804 FILLER_2_3
*805 FILLER_2_45
*806 FILLER_2_57
*807 FILLER_2_69
*808 FILLER_2_81
*809 FILLER_2_85
*810 FILLER_2_97
*811 FILLER_30_109
*812 FILLER_30_121
*813 FILLER_30_133
*814 FILLER_30_139
*815 FILLER_30_141
*816 FILLER_30_15
*817 FILLER_30_153
*818 FILLER_30_165
*819 FILLER_30_177
*820 FILLER_30_189
*821 FILLER_30_195
*822 FILLER_30_197
*823 FILLER_30_209
*824 FILLER_30_221
*825 FILLER_30_233
*826 FILLER_30_24
*827 FILLER_30_245
*828 FILLER_30_251
*829 FILLER_30_253
*830 FILLER_30_265
*831 FILLER_30_277
*832 FILLER_30_289
*833 FILLER_30_29
*834 FILLER_30_297
*835 FILLER_30_43
*836 FILLER_30_54
*837 FILLER_30_69
*838 FILLER_30_7
*839 FILLER_30_81
*840 FILLER_30_85
*841 FILLER_30_97
*842 FILLER_31_105
*843 FILLER_31_11
*844 FILLER_31_111
*845 FILLER_31_113
*846 FILLER_31_125
*847 FILLER_31_137
*848 FILLER_31_149
*849 FILLER_31_161
*850 FILLER_31_167
*851 FILLER_31_169
*852 FILLER_31_181
*853 FILLER_31_193
*854 FILLER_31_205
*855 FILLER_31_217
*856 FILLER_31_223
*857 FILLER_31_225
*858 FILLER_31_23
*859 FILLER_31_237
*860 FILLER_31_249
*861 FILLER_31_261
*862 FILLER_31_273
*863 FILLER_31_279
*864 FILLER_31_281
*865 FILLER_31_293
*866 FILLER_31_35
*867 FILLER_31_47
*868 FILLER_31_55
*869 FILLER_31_57
*870 FILLER_31_69
*871 FILLER_31_81
*872 FILLER_31_93
*873 FILLER_32_109
*874 FILLER_32_121
*875 FILLER_32_133
*876 FILLER_32_139
*877 FILLER_32_141
*878 FILLER_32_153
*879 FILLER_32_165
*880 FILLER_32_17
*881 FILLER_32_177
*882 FILLER_32_189
*883 FILLER_32_195
*884 FILLER_32_197
*885 FILLER_32_209
*886 FILLER_32_221
*887 FILLER_32_233
*888 FILLER_32_24
*889 FILLER_32_245
*890 FILLER_32_251
*891 FILLER_32_253
*892 FILLER_32_265
*893 FILLER_32_277
*894 FILLER_32_289
*895 FILLER_32_29
*896 FILLER_32_297
*897 FILLER_32_3
*898 FILLER_32_41
*899 FILLER_32_47
*900 FILLER_32_53
*901 FILLER_32_65
*902 FILLER_32_77
*903 FILLER_32_83
*904 FILLER_32_85
*905 FILLER_32_97
*906 FILLER_33_105
*907 FILLER_33_11
*908 FILLER_33_111
*909 FILLER_33_113
*910 FILLER_33_125
*911 FILLER_33_137
*912 FILLER_33_149
*913 FILLER_33_16
*914 FILLER_33_161
*915 FILLER_33_167
*916 FILLER_33_169
*917 FILLER_33_181
*918 FILLER_33_193
*919 FILLER_33_205
*920 FILLER_33_217
*921 FILLER_33_223
*922 FILLER_33_225
*923 FILLER_33_237
*924 FILLER_33_249
*925 FILLER_33_26
*926 FILLER_33_261
*927 FILLER_33_273
*928 FILLER_33_279
*929 FILLER_33_281
*930 FILLER_33_293
*931 FILLER_33_3
*932 FILLER_33_38
*933 FILLER_33_50
*934 FILLER_33_57
*935 FILLER_33_69
*936 FILLER_33_81
*937 FILLER_33_93
*938 FILLER_34_109
*939 FILLER_34_121
*940 FILLER_34_13
*941 FILLER_34_133
*942 FILLER_34_139
*943 FILLER_34_141
*944 FILLER_34_153
*945 FILLER_34_165
*946 FILLER_34_177
*947 FILLER_34_189
*948 FILLER_34_195
*949 FILLER_34_197
*950 FILLER_34_209
*951 FILLER_34_221
*952 FILLER_34_233
*953 FILLER_34_245
*954 FILLER_34_25
*955 FILLER_34_251
*956 FILLER_34_253
*957 FILLER_34_265
*958 FILLER_34_277
*959 FILLER_34_289
*960 FILLER_34_29
*961 FILLER_34_297
*962 FILLER_34_3
*963 FILLER_34_34
*964 FILLER_34_46
*965 FILLER_34_58
*966 FILLER_34_70
*967 FILLER_34_82
*968 FILLER_34_85
*969 FILLER_34_97
*970 FILLER_35_105
*971 FILLER_35_111
*972 FILLER_35_113
*973 FILLER_35_125
*974 FILLER_35_13
*975 FILLER_35_137
*976 FILLER_35_149
*977 FILLER_35_161
*978 FILLER_35_167
*979 FILLER_35_169
*980 FILLER_35_17
*981 FILLER_35_181
*982 FILLER_35_193
*983 FILLER_35_205
*984 FILLER_35_217
*985 FILLER_35_223
*986 FILLER_35_225
*987 FILLER_35_23
*988 FILLER_35_237
*989 FILLER_35_249
*990 FILLER_35_261
*991 FILLER_35_273
*992 FILLER_35_279
*993 FILLER_35_281
*994 FILLER_35_293
*995 FILLER_35_3
*996 FILLER_35_30
*997 FILLER_35_42
*998 FILLER_35_54
*999 FILLER_35_57
*1000 FILLER_35_69
*1001 FILLER_35_81
*1002 FILLER_35_93
*1003 FILLER_36_109
*1004 FILLER_36_121
*1005 FILLER_36_133
*1006 FILLER_36_139
*1007 FILLER_36_141
*1008 FILLER_36_153
*1009 FILLER_36_165
*1010 FILLER_36_177
*1011 FILLER_36_189
*1012 FILLER_36_195
*1013 FILLER_36_197
*1014 FILLER_36_209
*1015 FILLER_36_21
*1016 FILLER_36_221
*1017 FILLER_36_233
*1018 FILLER_36_245
*1019 FILLER_36_251
*1020 FILLER_36_253
*1021 FILLER_36_265
*1022 FILLER_36_27
*1023 FILLER_36_277
*1024 FILLER_36_289
*1025 FILLER_36_297
*1026 FILLER_36_3
*1027 FILLER_36_33
*1028 FILLER_36_37
*1029 FILLER_36_46
*1030 FILLER_36_58
*1031 FILLER_36_70
*1032 FILLER_36_82
*1033 FILLER_36_85
*1034 FILLER_36_97
*1035 FILLER_37_105
*1036 FILLER_37_111
*1037 FILLER_37_113
*1038 FILLER_37_125
*1039 FILLER_37_137
*1040 FILLER_37_149
*1041 FILLER_37_15
*1042 FILLER_37_161
*1043 FILLER_37_167
*1044 FILLER_37_169
*1045 FILLER_37_181
*1046 FILLER_37_193
*1047 FILLER_37_205
*1048 FILLER_37_217
*1049 FILLER_37_223
*1050 FILLER_37_225
*1051 FILLER_37_237
*1052 FILLER_37_249
*1053 FILLER_37_261
*1054 FILLER_37_27
*1055 FILLER_37_273
*1056 FILLER_37_279
*1057 FILLER_37_281
*1058 FILLER_37_293
*1059 FILLER_37_3
*1060 FILLER_37_39
*1061 FILLER_37_51
*1062 FILLER_37_55
*1063 FILLER_37_57
*1064 FILLER_37_69
*1065 FILLER_37_81
*1066 FILLER_37_93
*1067 FILLER_38_109
*1068 FILLER_38_121
*1069 FILLER_38_133
*1070 FILLER_38_139
*1071 FILLER_38_141
*1072 FILLER_38_15
*1073 FILLER_38_153
*1074 FILLER_38_165
*1075 FILLER_38_177
*1076 FILLER_38_189
*1077 FILLER_38_195
*1078 FILLER_38_197
*1079 FILLER_38_209
*1080 FILLER_38_221
*1081 FILLER_38_233
*1082 FILLER_38_245
*1083 FILLER_38_251
*1084 FILLER_38_253
*1085 FILLER_38_265
*1086 FILLER_38_27
*1087 FILLER_38_277
*1088 FILLER_38_289
*1089 FILLER_38_29
*1090 FILLER_38_297
*1091 FILLER_38_3
*1092 FILLER_38_41
*1093 FILLER_38_53
*1094 FILLER_38_65
*1095 FILLER_38_77
*1096 FILLER_38_83
*1097 FILLER_38_85
*1098 FILLER_38_97
*1099 FILLER_39_105
*1100 FILLER_39_11
*1101 FILLER_39_111
*1102 FILLER_39_113
*1103 FILLER_39_125
*1104 FILLER_39_137
*1105 FILLER_39_149
*1106 FILLER_39_161
*1107 FILLER_39_167
*1108 FILLER_39_169
*1109 FILLER_39_18
*1110 FILLER_39_181
*1111 FILLER_39_193
*1112 FILLER_39_205
*1113 FILLER_39_217
*1114 FILLER_39_223
*1115 FILLER_39_225
*1116 FILLER_39_237
*1117 FILLER_39_249
*1118 FILLER_39_261
*1119 FILLER_39_273
*1120 FILLER_39_279
*1121 FILLER_39_281
*1122 FILLER_39_293
*1123 FILLER_39_3
*1124 FILLER_39_30
*1125 FILLER_39_42
*1126 FILLER_39_54
*1127 FILLER_39_57
*1128 FILLER_39_69
*1129 FILLER_39_81
*1130 FILLER_39_93
*1131 FILLER_3_105
*1132 FILLER_3_111
*1133 FILLER_3_113
*1134 FILLER_3_12
*1135 FILLER_3_125
*1136 FILLER_3_137
*1137 FILLER_3_149
*1138 FILLER_3_161
*1139 FILLER_3_167
*1140 FILLER_3_169
*1141 FILLER_3_181
*1142 FILLER_3_193
*1143 FILLER_3_205
*1144 FILLER_3_217
*1145 FILLER_3_223
*1146 FILLER_3_225
*1147 FILLER_3_237
*1148 FILLER_3_249
*1149 FILLER_3_261
*1150 FILLER_3_273
*1151 FILLER_3_279
*1152 FILLER_3_281
*1153 FILLER_3_293
*1154 FILLER_3_3
*1155 FILLER_3_40
*1156 FILLER_3_52
*1157 FILLER_3_57
*1158 FILLER_3_69
*1159 FILLER_3_81
*1160 FILLER_3_93
*1161 FILLER_40_109
*1162 FILLER_40_121
*1163 FILLER_40_133
*1164 FILLER_40_139
*1165 FILLER_40_141
*1166 FILLER_40_15
*1167 FILLER_40_153
*1168 FILLER_40_165
*1169 FILLER_40_177
*1170 FILLER_40_189
*1171 FILLER_40_195
*1172 FILLER_40_197
*1173 FILLER_40_209
*1174 FILLER_40_221
*1175 FILLER_40_233
*1176 FILLER_40_245
*1177 FILLER_40_251
*1178 FILLER_40_253
*1179 FILLER_40_265
*1180 FILLER_40_27
*1181 FILLER_40_277
*1182 FILLER_40_289
*1183 FILLER_40_29
*1184 FILLER_40_297
*1185 FILLER_40_3
*1186 FILLER_40_41
*1187 FILLER_40_53
*1188 FILLER_40_65
*1189 FILLER_40_77
*1190 FILLER_40_83
*1191 FILLER_40_85
*1192 FILLER_40_97
*1193 FILLER_41_105
*1194 FILLER_41_111
*1195 FILLER_41_113
*1196 FILLER_41_125
*1197 FILLER_41_137
*1198 FILLER_41_149
*1199 FILLER_41_15
*1200 FILLER_41_161
*1201 FILLER_41_167
*1202 FILLER_41_169
*1203 FILLER_41_181
*1204 FILLER_41_193
*1205 FILLER_41_205
*1206 FILLER_41_217
*1207 FILLER_41_223
*1208 FILLER_41_225
*1209 FILLER_41_237
*1210 FILLER_41_249
*1211 FILLER_41_261
*1212 FILLER_41_27
*1213 FILLER_41_273
*1214 FILLER_41_279
*1215 FILLER_41_281
*1216 FILLER_41_293
*1217 FILLER_41_3
*1218 FILLER_41_39
*1219 FILLER_41_51
*1220 FILLER_41_55
*1221 FILLER_41_57
*1222 FILLER_41_69
*1223 FILLER_41_81
*1224 FILLER_41_93
*1225 FILLER_42_109
*1226 FILLER_42_12
*1227 FILLER_42_121
*1228 FILLER_42_133
*1229 FILLER_42_139
*1230 FILLER_42_141
*1231 FILLER_42_153
*1232 FILLER_42_165
*1233 FILLER_42_177
*1234 FILLER_42_189
*1235 FILLER_42_195
*1236 FILLER_42_197
*1237 FILLER_42_209
*1238 FILLER_42_221
*1239 FILLER_42_233
*1240 FILLER_42_24
*1241 FILLER_42_245
*1242 FILLER_42_251
*1243 FILLER_42_253
*1244 FILLER_42_265
*1245 FILLER_42_277
*1246 FILLER_42_289
*1247 FILLER_42_29
*1248 FILLER_42_297
*1249 FILLER_42_3
*1250 FILLER_42_41
*1251 FILLER_42_53
*1252 FILLER_42_65
*1253 FILLER_42_7
*1254 FILLER_42_77
*1255 FILLER_42_83
*1256 FILLER_42_85
*1257 FILLER_42_97
*1258 FILLER_43_105
*1259 FILLER_43_111
*1260 FILLER_43_113
*1261 FILLER_43_125
*1262 FILLER_43_137
*1263 FILLER_43_149
*1264 FILLER_43_15
*1265 FILLER_43_161
*1266 FILLER_43_167
*1267 FILLER_43_169
*1268 FILLER_43_181
*1269 FILLER_43_193
*1270 FILLER_43_205
*1271 FILLER_43_217
*1272 FILLER_43_223
*1273 FILLER_43_225
*1274 FILLER_43_237
*1275 FILLER_43_249
*1276 FILLER_43_261
*1277 FILLER_43_27
*1278 FILLER_43_273
*1279 FILLER_43_279
*1280 FILLER_43_281
*1281 FILLER_43_293
*1282 FILLER_43_3
*1283 FILLER_43_39
*1284 FILLER_43_51
*1285 FILLER_43_55
*1286 FILLER_43_57
*1287 FILLER_43_69
*1288 FILLER_43_81
*1289 FILLER_43_93
*1290 FILLER_44_109
*1291 FILLER_44_121
*1292 FILLER_44_133
*1293 FILLER_44_139
*1294 FILLER_44_141
*1295 FILLER_44_15
*1296 FILLER_44_153
*1297 FILLER_44_165
*1298 FILLER_44_177
*1299 FILLER_44_189
*1300 FILLER_44_195
*1301 FILLER_44_197
*1302 FILLER_44_209
*1303 FILLER_44_221
*1304 FILLER_44_233
*1305 FILLER_44_245
*1306 FILLER_44_251
*1307 FILLER_44_253
*1308 FILLER_44_265
*1309 FILLER_44_27
*1310 FILLER_44_277
*1311 FILLER_44_289
*1312 FILLER_44_29
*1313 FILLER_44_297
*1314 FILLER_44_3
*1315 FILLER_44_41
*1316 FILLER_44_53
*1317 FILLER_44_65
*1318 FILLER_44_77
*1319 FILLER_44_83
*1320 FILLER_44_85
*1321 FILLER_44_97
*1322 FILLER_45_105
*1323 FILLER_45_111
*1324 FILLER_45_113
*1325 FILLER_45_125
*1326 FILLER_45_137
*1327 FILLER_45_149
*1328 FILLER_45_161
*1329 FILLER_45_167
*1330 FILLER_45_169
*1331 FILLER_45_181
*1332 FILLER_45_193
*1333 FILLER_45_205
*1334 FILLER_45_21
*1335 FILLER_45_217
*1336 FILLER_45_223
*1337 FILLER_45_225
*1338 FILLER_45_237
*1339 FILLER_45_249
*1340 FILLER_45_261
*1341 FILLER_45_273
*1342 FILLER_45_279
*1343 FILLER_45_281
*1344 FILLER_45_293
*1345 FILLER_45_3
*1346 FILLER_45_33
*1347 FILLER_45_45
*1348 FILLER_45_53
*1349 FILLER_45_57
*1350 FILLER_45_69
*1351 FILLER_45_81
*1352 FILLER_45_9
*1353 FILLER_45_93
*1354 FILLER_46_109
*1355 FILLER_46_121
*1356 FILLER_46_133
*1357 FILLER_46_139
*1358 FILLER_46_141
*1359 FILLER_46_15
*1360 FILLER_46_153
*1361 FILLER_46_165
*1362 FILLER_46_177
*1363 FILLER_46_189
*1364 FILLER_46_195
*1365 FILLER_46_197
*1366 FILLER_46_209
*1367 FILLER_46_221
*1368 FILLER_46_233
*1369 FILLER_46_245
*1370 FILLER_46_251
*1371 FILLER_46_253
*1372 FILLER_46_265
*1373 FILLER_46_27
*1374 FILLER_46_277
*1375 FILLER_46_289
*1376 FILLER_46_29
*1377 FILLER_46_297
*1378 FILLER_46_3
*1379 FILLER_46_41
*1380 FILLER_46_53
*1381 FILLER_46_65
*1382 FILLER_46_77
*1383 FILLER_46_83
*1384 FILLER_46_85
*1385 FILLER_46_97
*1386 FILLER_47_105
*1387 FILLER_47_111
*1388 FILLER_47_113
*1389 FILLER_47_125
*1390 FILLER_47_137
*1391 FILLER_47_149
*1392 FILLER_47_15
*1393 FILLER_47_161
*1394 FILLER_47_167
*1395 FILLER_47_169
*1396 FILLER_47_181
*1397 FILLER_47_193
*1398 FILLER_47_205
*1399 FILLER_47_217
*1400 FILLER_47_223
*1401 FILLER_47_225
*1402 FILLER_47_237
*1403 FILLER_47_249
*1404 FILLER_47_261
*1405 FILLER_47_27
*1406 FILLER_47_273
*1407 FILLER_47_279
*1408 FILLER_47_281
*1409 FILLER_47_293
*1410 FILLER_47_3
*1411 FILLER_47_39
*1412 FILLER_47_51
*1413 FILLER_47_55
*1414 FILLER_47_57
*1415 FILLER_47_69
*1416 FILLER_47_81
*1417 FILLER_47_93
*1418 FILLER_48_109
*1419 FILLER_48_121
*1420 FILLER_48_133
*1421 FILLER_48_139
*1422 FILLER_48_141
*1423 FILLER_48_15
*1424 FILLER_48_153
*1425 FILLER_48_165
*1426 FILLER_48_177
*1427 FILLER_48_189
*1428 FILLER_48_195
*1429 FILLER_48_197
*1430 FILLER_48_209
*1431 FILLER_48_221
*1432 FILLER_48_233
*1433 FILLER_48_245
*1434 FILLER_48_251
*1435 FILLER_48_253
*1436 FILLER_48_265
*1437 FILLER_48_27
*1438 FILLER_48_277
*1439 FILLER_48_289
*1440 FILLER_48_29
*1441 FILLER_48_297
*1442 FILLER_48_3
*1443 FILLER_48_41
*1444 FILLER_48_53
*1445 FILLER_48_65
*1446 FILLER_48_77
*1447 FILLER_48_83
*1448 FILLER_48_85
*1449 FILLER_48_97
*1450 FILLER_49_105
*1451 FILLER_49_111
*1452 FILLER_49_113
*1453 FILLER_49_125
*1454 FILLER_49_137
*1455 FILLER_49_149
*1456 FILLER_49_15
*1457 FILLER_49_161
*1458 FILLER_49_167
*1459 FILLER_49_169
*1460 FILLER_49_181
*1461 FILLER_49_193
*1462 FILLER_49_205
*1463 FILLER_49_217
*1464 FILLER_49_223
*1465 FILLER_49_225
*1466 FILLER_49_237
*1467 FILLER_49_249
*1468 FILLER_49_261
*1469 FILLER_49_27
*1470 FILLER_49_273
*1471 FILLER_49_279
*1472 FILLER_49_281
*1473 FILLER_49_293
*1474 FILLER_49_3
*1475 FILLER_49_39
*1476 FILLER_49_51
*1477 FILLER_49_55
*1478 FILLER_49_57
*1479 FILLER_49_69
*1480 FILLER_49_81
*1481 FILLER_49_93
*1482 FILLER_4_109
*1483 FILLER_4_121
*1484 FILLER_4_133
*1485 FILLER_4_139
*1486 FILLER_4_141
*1487 FILLER_4_153
*1488 FILLER_4_165
*1489 FILLER_4_177
*1490 FILLER_4_189
*1491 FILLER_4_195
*1492 FILLER_4_197
*1493 FILLER_4_209
*1494 FILLER_4_221
*1495 FILLER_4_23
*1496 FILLER_4_233
*1497 FILLER_4_245
*1498 FILLER_4_251
*1499 FILLER_4_253
*1500 FILLER_4_265
*1501 FILLER_4_27
*1502 FILLER_4_277
*1503 FILLER_4_289
*1504 FILLER_4_29
*1505 FILLER_4_297
*1506 FILLER_4_3
*1507 FILLER_4_41
*1508 FILLER_4_53
*1509 FILLER_4_65
*1510 FILLER_4_77
*1511 FILLER_4_83
*1512 FILLER_4_85
*1513 FILLER_4_97
*1514 FILLER_50_109
*1515 FILLER_50_121
*1516 FILLER_50_133
*1517 FILLER_50_139
*1518 FILLER_50_141
*1519 FILLER_50_15
*1520 FILLER_50_153
*1521 FILLER_50_165
*1522 FILLER_50_177
*1523 FILLER_50_189
*1524 FILLER_50_195
*1525 FILLER_50_197
*1526 FILLER_50_209
*1527 FILLER_50_221
*1528 FILLER_50_233
*1529 FILLER_50_245
*1530 FILLER_50_251
*1531 FILLER_50_253
*1532 FILLER_50_265
*1533 FILLER_50_27
*1534 FILLER_50_277
*1535 FILLER_50_289
*1536 FILLER_50_29
*1537 FILLER_50_297
*1538 FILLER_50_3
*1539 FILLER_50_41
*1540 FILLER_50_53
*1541 FILLER_50_65
*1542 FILLER_50_77
*1543 FILLER_50_83
*1544 FILLER_50_85
*1545 FILLER_50_97
*1546 FILLER_51_105
*1547 FILLER_51_111
*1548 FILLER_51_113
*1549 FILLER_51_125
*1550 FILLER_51_137
*1551 FILLER_51_149
*1552 FILLER_51_15
*1553 FILLER_51_161
*1554 FILLER_51_167
*1555 FILLER_51_169
*1556 FILLER_51_181
*1557 FILLER_51_193
*1558 FILLER_51_205
*1559 FILLER_51_217
*1560 FILLER_51_223
*1561 FILLER_51_225
*1562 FILLER_51_237
*1563 FILLER_51_249
*1564 FILLER_51_261
*1565 FILLER_51_27
*1566 FILLER_51_273
*1567 FILLER_51_279
*1568 FILLER_51_281
*1569 FILLER_51_293
*1570 FILLER_51_3
*1571 FILLER_51_39
*1572 FILLER_51_51
*1573 FILLER_51_55
*1574 FILLER_51_57
*1575 FILLER_51_69
*1576 FILLER_51_81
*1577 FILLER_51_93
*1578 FILLER_52_109
*1579 FILLER_52_121
*1580 FILLER_52_133
*1581 FILLER_52_139
*1582 FILLER_52_141
*1583 FILLER_52_15
*1584 FILLER_52_153
*1585 FILLER_52_165
*1586 FILLER_52_177
*1587 FILLER_52_189
*1588 FILLER_52_195
*1589 FILLER_52_197
*1590 FILLER_52_209
*1591 FILLER_52_221
*1592 FILLER_52_233
*1593 FILLER_52_245
*1594 FILLER_52_251
*1595 FILLER_52_253
*1596 FILLER_52_265
*1597 FILLER_52_27