*SPEF "ieee 1481-1999"
*DESIGN "user_module_349952820323025491"
*DATE "11:11:11 Fri 11 11, 1111"
*VENDOR "OpenRCX"
*PROGRAM "Parallel Extraction"
*VERSION "1.0"
*DESIGN_FLOW "NAME_SCOPE LOCAL" "PIN_CAP NONE"
*DIVIDER /
*DELIMITER :
*BUS_DELIMITER []
*T_UNIT 1 NS
*C_UNIT 1 PF
*R_UNIT 1 OHM
*L_UNIT 1 HENRY

*NAME_MAP
*1 io_in[0]
*2 io_in[1]
*3 io_in[2]
*4 io_in[3]
*5 io_in[4]
*6 io_in[5]
*7 io_in[6]
*8 io_in[7]
*9 io_out[0]
*10 io_out[1]
*11 io_out[2]
*12 io_out[3]
*13 io_out[4]
*14 io_out[5]
*15 io_out[6]
*16 io_out[7]
*19 _00_
*20 _01_
*21 _02_
*22 _03_
*23 _04_
*24 _05_
*25 _06_
*26 _07_
*27 clknet_0__06_
*28 clknet_0_gate17\.a
*29 clknet_0_io_in[0]
*30 clknet_1_0__leaf__06_
*31 clknet_1_0__leaf_gate17\.a
*32 clknet_1_0__leaf_io_in[0]
*33 clknet_1_1__leaf__06_
*34 clknet_1_1__leaf_gate17\.a
*35 clknet_1_1__leaf_io_in[0]
*36 gate11\.out
*37 gate12\.out
*38 gate17\.a
*39 gate22\.out
*40 gate32\.out
*41 gate48\.out
*42 net1
*43 net2
*44 net3
*45 net4
*46 net5
*47 net6
*48 net7
*49 FILLER_0_109
*50 FILLER_0_113
*51 FILLER_0_125
*52 FILLER_0_137
*53 FILLER_0_141
*54 FILLER_0_15
*55 FILLER_0_153
*56 FILLER_0_165
*57 FILLER_0_169
*58 FILLER_0_181
*59 FILLER_0_193
*60 FILLER_0_197
*61 FILLER_0_209
*62 FILLER_0_221
*63 FILLER_0_225
*64 FILLER_0_237
*65 FILLER_0_249
*66 FILLER_0_253
*67 FILLER_0_265
*68 FILLER_0_27
*69 FILLER_0_277
*70 FILLER_0_281
*71 FILLER_0_29
*72 FILLER_0_293
*73 FILLER_0_3
*74 FILLER_0_41
*75 FILLER_0_53
*76 FILLER_0_57
*77 FILLER_0_69
*78 FILLER_0_81
*79 FILLER_0_85
*80 FILLER_0_97
*81 FILLER_10_109
*82 FILLER_10_121
*83 FILLER_10_133
*84 FILLER_10_139
*85 FILLER_10_141
*86 FILLER_10_15
*87 FILLER_10_153
*88 FILLER_10_165
*89 FILLER_10_177
*90 FILLER_10_189
*91 FILLER_10_195
*92 FILLER_10_197
*93 FILLER_10_209
*94 FILLER_10_221
*95 FILLER_10_233
*96 FILLER_10_245
*97 FILLER_10_251
*98 FILLER_10_253
*99 FILLER_10_265
*100 FILLER_10_27
*101 FILLER_10_277
*102 FILLER_10_289
*103 FILLER_10_29
*104 FILLER_10_297
*105 FILLER_10_3
*106 FILLER_10_41
*107 FILLER_10_53
*108 FILLER_10_65
*109 FILLER_10_77
*110 FILLER_10_83
*111 FILLER_10_85
*112 FILLER_10_97
*113 FILLER_11_105
*114 FILLER_11_111
*115 FILLER_11_113
*116 FILLER_11_125
*117 FILLER_11_137
*118 FILLER_11_149
*119 FILLER_11_15
*120 FILLER_11_161
*121 FILLER_11_167
*122 FILLER_11_169
*123 FILLER_11_181
*124 FILLER_11_193
*125 FILLER_11_205
*126 FILLER_11_217
*127 FILLER_11_223
*128 FILLER_11_225
*129 FILLER_11_237
*130 FILLER_11_249
*131 FILLER_11_261
*132 FILLER_11_27
*133 FILLER_11_273
*134 FILLER_11_279
*135 FILLER_11_281
*136 FILLER_11_293
*137 FILLER_11_3
*138 FILLER_11_39
*139 FILLER_11_51
*140 FILLER_11_55
*141 FILLER_11_57
*142 FILLER_11_69
*143 FILLER_11_81
*144 FILLER_11_93
*145 FILLER_12_109
*146 FILLER_12_121
*147 FILLER_12_133
*148 FILLER_12_139
*149 FILLER_12_141
*150 FILLER_12_153
*151 FILLER_12_165
*152 FILLER_12_177
*153 FILLER_12_18
*154 FILLER_12_189
*155 FILLER_12_195
*156 FILLER_12_197
*157 FILLER_12_209
*158 FILLER_12_221
*159 FILLER_12_233
*160 FILLER_12_245
*161 FILLER_12_251
*162 FILLER_12_253
*163 FILLER_12_26
*164 FILLER_12_265
*165 FILLER_12_277
*166 FILLER_12_289
*167 FILLER_12_29
*168 FILLER_12_297
*169 FILLER_12_41
*170 FILLER_12_53
*171 FILLER_12_6
*172 FILLER_12_65
*173 FILLER_12_77
*174 FILLER_12_83
*175 FILLER_12_85
*176 FILLER_12_97
*177 FILLER_13_105
*178 FILLER_13_111
*179 FILLER_13_113
*180 FILLER_13_125
*181 FILLER_13_137
*182 FILLER_13_149
*183 FILLER_13_15
*184 FILLER_13_161
*185 FILLER_13_167
*186 FILLER_13_169
*187 FILLER_13_181
*188 FILLER_13_193
*189 FILLER_13_205
*190 FILLER_13_217
*191 FILLER_13_223
*192 FILLER_13_225
*193 FILLER_13_237
*194 FILLER_13_249
*195 FILLER_13_261
*196 FILLER_13_27
*197 FILLER_13_273
*198 FILLER_13_279
*199 FILLER_13_281
*200 FILLER_13_293
*201 FILLER_13_3
*202 FILLER_13_39
*203 FILLER_13_51
*204 FILLER_13_55
*205 FILLER_13_57
*206 FILLER_13_69
*207 FILLER_13_81
*208 FILLER_13_93
*209 FILLER_14_109
*210 FILLER_14_121
*211 FILLER_14_133
*212 FILLER_14_139
*213 FILLER_14_141
*214 FILLER_14_15
*215 FILLER_14_153
*216 FILLER_14_165
*217 FILLER_14_177
*218 FILLER_14_189
*219 FILLER_14_195
*220 FILLER_14_197
*221 FILLER_14_209
*222 FILLER_14_221
*223 FILLER_14_233
*224 FILLER_14_245
*225 FILLER_14_251
*226 FILLER_14_253
*227 FILLER_14_265
*228 FILLER_14_27
*229 FILLER_14_277
*230 FILLER_14_289
*231 FILLER_14_29
*232 FILLER_14_297
*233 FILLER_14_3
*234 FILLER_14_41
*235 FILLER_14_53
*236 FILLER_14_65
*237 FILLER_14_77
*238 FILLER_14_83
*239 FILLER_14_85
*240 FILLER_14_97
*241 FILLER_15_105
*242 FILLER_15_111
*243 FILLER_15_113
*244 FILLER_15_125
*245 FILLER_15_137
*246 FILLER_15_149
*247 FILLER_15_161
*248 FILLER_15_167
*249 FILLER_15_169
*250 FILLER_15_181
*251 FILLER_15_193
*252 FILLER_15_205
*253 FILLER_15_217
*254 FILLER_15_223
*255 FILLER_15_225
*256 FILLER_15_237
*257 FILLER_15_249
*258 FILLER_15_25
*259 FILLER_15_261
*260 FILLER_15_273
*261 FILLER_15_279
*262 FILLER_15_281
*263 FILLER_15_293
*264 FILLER_15_37
*265 FILLER_15_49
*266 FILLER_15_55
*267 FILLER_15_57
*268 FILLER_15_69
*269 FILLER_15_81
*270 FILLER_15_93
*271 FILLER_16_109
*272 FILLER_16_121
*273 FILLER_16_13
*274 FILLER_16_133
*275 FILLER_16_139
*276 FILLER_16_141
*277 FILLER_16_153
*278 FILLER_16_165
*279 FILLER_16_177
*280 FILLER_16_189
*281 FILLER_16_195
*282 FILLER_16_197
*283 FILLER_16_209
*284 FILLER_16_221
*285 FILLER_16_233
*286 FILLER_16_245
*287 FILLER_16_25
*288 FILLER_16_251
*289 FILLER_16_253
*290 FILLER_16_265
*291 FILLER_16_277
*292 FILLER_16_289
*293 FILLER_16_29
*294 FILLER_16_297
*295 FILLER_16_41
*296 FILLER_16_53
*297 FILLER_16_65
*298 FILLER_16_77
*299 FILLER_16_83
*300 FILLER_16_85
*301 FILLER_16_97
*302 FILLER_17_105
*303 FILLER_17_111
*304 FILLER_17_113
*305 FILLER_17_125
*306 FILLER_17_137
*307 FILLER_17_149
*308 FILLER_17_15
*309 FILLER_17_161
*310 FILLER_17_167
*311 FILLER_17_169
*312 FILLER_17_181
*313 FILLER_17_193
*314 FILLER_17_205
*315 FILLER_17_217
*316 FILLER_17_223
*317 FILLER_17_225
*318 FILLER_17_237
*319 FILLER_17_249
*320 FILLER_17_261
*321 FILLER_17_27
*322 FILLER_17_273
*323 FILLER_17_279
*324 FILLER_17_281
*325 FILLER_17_293
*326 FILLER_17_3
*327 FILLER_17_39
*328 FILLER_17_51
*329 FILLER_17_55
*330 FILLER_17_57
*331 FILLER_17_69
*332 FILLER_17_81
*333 FILLER_17_93
*334 FILLER_18_109
*335 FILLER_18_121
*336 FILLER_18_133
*337 FILLER_18_139
*338 FILLER_18_141
*339 FILLER_18_15
*340 FILLER_18_153
*341 FILLER_18_165
*342 FILLER_18_177
*343 FILLER_18_189
*344 FILLER_18_195
*345 FILLER_18_197
*346 FILLER_18_209
*347 FILLER_18_221
*348 FILLER_18_233
*349 FILLER_18_245
*350 FILLER_18_251
*351 FILLER_18_253
*352 FILLER_18_265
*353 FILLER_18_27
*354 FILLER_18_277
*355 FILLER_18_289
*356 FILLER_18_29
*357 FILLER_18_297
*358 FILLER_18_3
*359 FILLER_18_41
*360 FILLER_18_53
*361 FILLER_18_65
*362 FILLER_18_77
*363 FILLER_18_83
*364 FILLER_18_85
*365 FILLER_18_97
*366 FILLER_19_105
*367 FILLER_19_111
*368 FILLER_19_113
*369 FILLER_19_125
*370 FILLER_19_137
*371 FILLER_19_149
*372 FILLER_19_15
*373 FILLER_19_161
*374 FILLER_19_167
*375 FILLER_19_169
*376 FILLER_19_181
*377 FILLER_19_193
*378 FILLER_19_205
*379 FILLER_19_217
*380 FILLER_19_223
*381 FILLER_19_225
*382 FILLER_19_237
*383 FILLER_19_249
*384 FILLER_19_261
*385 FILLER_19_27
*386 FILLER_19_273
*387 FILLER_19_279
*388 FILLER_19_281
*389 FILLER_19_293
*390 FILLER_19_3
*391 FILLER_19_39
*392 FILLER_19_51
*393 FILLER_19_55
*394 FILLER_19_57
*395 FILLER_19_69
*396 FILLER_19_81
*397 FILLER_19_93
*398 FILLER_1_105
*399 FILLER_1_111
*400 FILLER_1_113
*401 FILLER_1_125
*402 FILLER_1_137
*403 FILLER_1_149
*404 FILLER_1_15
*405 FILLER_1_161
*406 FILLER_1_167
*407 FILLER_1_169
*408 FILLER_1_181
*409 FILLER_1_193
*410 FILLER_1_205
*411 FILLER_1_217
*412 FILLER_1_223
*413 FILLER_1_225
*414 FILLER_1_237
*415 FILLER_1_249
*416 FILLER_1_261
*417 FILLER_1_27
*418 FILLER_1_273
*419 FILLER_1_279
*420 FILLER_1_281
*421 FILLER_1_293
*422 FILLER_1_3
*423 FILLER_1_39
*424 FILLER_1_51
*425 FILLER_1_55
*426 FILLER_1_57
*427 FILLER_1_69
*428 FILLER_1_81
*429 FILLER_1_93
*430 FILLER_20_109
*431 FILLER_20_11
*432 FILLER_20_121
*433 FILLER_20_133
*434 FILLER_20_139
*435 FILLER_20_141
*436 FILLER_20_153
*437 FILLER_20_165
*438 FILLER_20_177
*439 FILLER_20_189
*440 FILLER_20_195
*441 FILLER_20_197
*442 FILLER_20_209
*443 FILLER_20_221
*444 FILLER_20_23
*445 FILLER_20_233
*446 FILLER_20_245
*447 FILLER_20_251
*448 FILLER_20_253
*449 FILLER_20_265
*450 FILLER_20_27
*451 FILLER_20_277
*452 FILLER_20_289
*453 FILLER_20_29
*454 FILLER_20_297
*455 FILLER_20_3
*456 FILLER_20_41
*457 FILLER_20_53
*458 FILLER_20_65
*459 FILLER_20_77
*460 FILLER_20_83
*461 FILLER_20_85
*462 FILLER_20_97
*463 FILLER_21_105
*464 FILLER_21_111
*465 FILLER_21_113
*466 FILLER_21_125
*467 FILLER_21_137
*468 FILLER_21_149
*469 FILLER_21_15
*470 FILLER_21_161
*471 FILLER_21_167
*472 FILLER_21_169
*473 FILLER_21_181
*474 FILLER_21_193
*475 FILLER_21_205
*476 FILLER_21_217
*477 FILLER_21_223
*478 FILLER_21_225
*479 FILLER_21_237
*480 FILLER_21_249
*481 FILLER_21_261
*482 FILLER_21_27
*483 FILLER_21_273
*484 FILLER_21_279
*485 FILLER_21_281
*486 FILLER_21_293
*487 FILLER_21_3
*488 FILLER_21_39
*489 FILLER_21_51
*490 FILLER_21_55
*491 FILLER_21_57
*492 FILLER_21_69
*493 FILLER_21_81
*494 FILLER_21_93
*495 FILLER_22_109
*496 FILLER_22_121
*497 FILLER_22_133
*498 FILLER_22_139
*499 FILLER_22_141
*500 FILLER_22_15
*501 FILLER_22_153
*502 FILLER_22_165
*503 FILLER_22_177
*504 FILLER_22_189
*505 FILLER_22_195
*506 FILLER_22_197
*507 FILLER_22_209
*508 FILLER_22_221
*509 FILLER_22_233
*510 FILLER_22_245
*511 FILLER_22_251
*512 FILLER_22_253
*513 FILLER_22_265
*514 FILLER_22_27
*515 FILLER_22_277
*516 FILLER_22_289
*517 FILLER_22_29
*518 FILLER_22_297
*519 FILLER_22_3
*520 FILLER_22_41
*521 FILLER_22_53
*522 FILLER_22_65
*523 FILLER_22_77
*524 FILLER_22_83
*525 FILLER_22_85
*526 FILLER_22_97
*527 FILLER_23_105
*528 FILLER_23_111
*529 FILLER_23_113
*530 FILLER_23_125
*531 FILLER_23_137
*532 FILLER_23_149
*533 FILLER_23_161
*534 FILLER_23_167
*535 FILLER_23_169
*536 FILLER_23_181
*537 FILLER_23_193
*538 FILLER_23_20
*539 FILLER_23_205
*540 FILLER_23_217
*541 FILLER_23_223
*542 FILLER_23_225
*543 FILLER_23_237
*544 FILLER_23_249
*545 FILLER_23_261
*546 FILLER_23_273
*547 FILLER_23_279
*548 FILLER_23_281
*549 FILLER_23_293
*550 FILLER_23_3
*551 FILLER_23_32
*552 FILLER_23_44
*553 FILLER_23_57
*554 FILLER_23_69
*555 FILLER_23_81
*556 FILLER_23_93
*557 FILLER_24_109
*558 FILLER_24_121
*559 FILLER_24_133
*560 FILLER_24_139
*561 FILLER_24_141
*562 FILLER_24_153
*563 FILLER_24_165
*564 FILLER_24_177
*565 FILLER_24_18
*566 FILLER_24_189
*567 FILLER_24_195
*568 FILLER_24_197
*569 FILLER_24_209
*570 FILLER_24_221
*571 FILLER_24_233
*572 FILLER_24_245
*573 FILLER_24_251
*574 FILLER_24_253
*575 FILLER_24_26
*576 FILLER_24_265
*577 FILLER_24_277
*578 FILLER_24_289
*579 FILLER_24_29
*580 FILLER_24_297
*581 FILLER_24_41
*582 FILLER_24_53
*583 FILLER_24_6
*584 FILLER_24_65
*585 FILLER_24_77
*586 FILLER_24_83
*587 FILLER_24_85
*588 FILLER_24_97
*589 FILLER_25_105
*590 FILLER_25_111
*591 FILLER_25_113
*592 FILLER_25_125
*593 FILLER_25_137
*594 FILLER_25_149
*595 FILLER_25_15
*596 FILLER_25_161
*597 FILLER_25_167
*598 FILLER_25_169
*599 FILLER_25_181
*600 FILLER_25_193
*601 FILLER_25_205
*602 FILLER_25_217
*603 FILLER_25_223
*604 FILLER_25_225
*605 FILLER_25_237
*606 FILLER_25_249
*607 FILLER_25_261
*608 FILLER_25_27
*609 FILLER_25_273
*610 FILLER_25_279
*611 FILLER_25_281
*612 FILLER_25_293
*613 FILLER_25_3
*614 FILLER_25_39
*615 FILLER_25_51
*616 FILLER_25_55
*617 FILLER_25_57
*618 FILLER_25_69
*619 FILLER_25_81
*620 FILLER_25_93
*621 FILLER_26_109
*622 FILLER_26_121
*623 FILLER_26_133
*624 FILLER_26_139
*625 FILLER_26_141
*626 FILLER_26_15
*627 FILLER_26_153
*628 FILLER_26_165
*629 FILLER_26_177
*630 FILLER_26_189
*631 FILLER_26_195
*632 FILLER_26_197
*633 FILLER_26_209
*634 FILLER_26_221
*635 FILLER_26_233
*636 FILLER_26_245
*637 FILLER_26_251
*638 FILLER_26_253
*639 FILLER_26_265
*640 FILLER_26_27
*641 FILLER_26_277
*642 FILLER_26_289
*643 FILLER_26_29
*644 FILLER_26_297
*645 FILLER_26_3
*646 FILLER_26_41
*647 FILLER_26_53
*648 FILLER_26_65
*649 FILLER_26_77
*650 FILLER_26_83
*651 FILLER_26_85
*652 FILLER_26_97
*653 FILLER_27_105
*654 FILLER_27_111
*655 FILLER_27_113
*656 FILLER_27_125
*657 FILLER_27_137
*658 FILLER_27_149
*659 FILLER_27_15
*660 FILLER_27_161
*661 FILLER_27_167
*662 FILLER_27_169
*663 FILLER_27_181
*664 FILLER_27_193
*665 FILLER_27_205
*666 FILLER_27_217
*667 FILLER_27_22
*668 FILLER_27_223
*669 FILLER_27_225
*670 FILLER_27_237
*671 FILLER_27_249
*672 FILLER_27_261
*673 FILLER_27_273
*674 FILLER_27_279
*675 FILLER_27_281
*676 FILLER_27_293
*677 FILLER_27_3
*678 FILLER_27_34
*679 FILLER_27_46
*680 FILLER_27_54
*681 FILLER_27_57
*682 FILLER_27_69
*683 FILLER_27_81
*684 FILLER_27_93
*685 FILLER_28_109
*686 FILLER_28_121
*687 FILLER_28_133
*688 FILLER_28_139
*689 FILLER_28_141
*690 FILLER_28_153
*691 FILLER_28_165
*692 FILLER_28_177
*693 FILLER_28_18
*694 FILLER_28_189
*695 FILLER_28_195
*696 FILLER_28_197
*697 FILLER_28_209
*698 FILLER_28_221
*699 FILLER_28_233
*700 FILLER_28_245
*701 FILLER_28_251
*702 FILLER_28_253
*703 FILLER_28_26
*704 FILLER_28_265
*705 FILLER_28_277
*706 FILLER_28_289
*707 FILLER_28_29
*708 FILLER_28_297
*709 FILLER_28_41
*710 FILLER_28_53
*711 FILLER_28_6
*712 FILLER_28_65
*713 FILLER_28_77
*714 FILLER_28_83
*715 FILLER_28_85
*716 FILLER_28_97
*717 FILLER_29_105
*718 FILLER_29_11
*719 FILLER_29_111
*720 FILLER_29_113
*721 FILLER_29_125
*722 FILLER_29_137
*723 FILLER_29_149
*724 FILLER_29_161
*725 FILLER_29_167
*726 FILLER_29_169
*727 FILLER_29_181
*728 FILLER_29_193
*729 FILLER_29_205
*730 FILLER_29_217
*731 FILLER_29_22
*732 FILLER_29_223
*733 FILLER_29_225
*734 FILLER_29_237
*735 FILLER_29_249
*736 FILLER_29_261
*737 FILLER_29_273
*738 FILLER_29_279
*739 FILLER_29_281
*740 FILLER_29_293
*741 FILLER_29_3
*742 FILLER_29_34
*743 FILLER_29_46
*744 FILLER_29_54
*745 FILLER_29_57
*746 FILLER_29_69
*747 FILLER_29_81
*748 FILLER_29_93
*749 FILLER_2_109
*750 FILLER_2_121
*751 FILLER_2_133
*752 FILLER_2_139
*753 FILLER_2_141
*754 FILLER_2_15
*755 FILLER_2_153
*756 FILLER_2_165
*757 FILLER_2_177
*758 FILLER_2_189
*759 FILLER_2_195
*760 FILLER_2_197
*761 FILLER_2_209
*762 FILLER_2_221
*763 FILLER_2_233
*764 FILLER_2_245
*765 FILLER_2_251
*766 FILLER_2_253
*767 FILLER_2_265
*768 FILLER_2_27
*769 FILLER_2_277
*770 FILLER_2_289
*771 FILLER_2_29
*772 FILLER_2_297
*773 FILLER_2_3
*774 FILLER_2_41
*775 FILLER_2_53
*776 FILLER_2_65
*777 FILLER_2_77
*778 FILLER_2_83
*779 FILLER_2_85
*780 FILLER_2_97
*781 FILLER_30_109
*782 FILLER_30_121
*783 FILLER_30_133
*784 FILLER_30_139
*785 FILLER_30_141
*786 FILLER_30_153
*787 FILLER_30_165
*788 FILLER_30_177
*789 FILLER_30_189
*790 FILLER_30_195
*791 FILLER_30_197
*792 FILLER_30_209
*793 FILLER_30_221
*794 FILLER_30_233
*795 FILLER_30_24
*796 FILLER_30_245
*797 FILLER_30_251
*798 FILLER_30_253
*799 FILLER_30_265
*800 FILLER_30_277
*801 FILLER_30_289
*802 FILLER_30_29
*803 FILLER_30_297
*804 FILLER_30_3
*805 FILLER_30_41
*806 FILLER_30_53
*807 FILLER_30_65
*808 FILLER_30_77
*809 FILLER_30_83
*810 FILLER_30_85
*811 FILLER_30_97
*812 FILLER_31_105
*813 FILLER_31_111
*814 FILLER_31_113
*815 FILLER_31_125
*816 FILLER_31_137
*817 FILLER_31_149
*818 FILLER_31_161
*819 FILLER_31_167
*820 FILLER_31_169
*821 FILLER_31_181
*822 FILLER_31_193
*823 FILLER_31_205
*824 FILLER_31_217
*825 FILLER_31_223
*826 FILLER_31_225
*827 FILLER_31_237
*828 FILLER_31_249
*829 FILLER_31_261
*830 FILLER_31_27
*831 FILLER_31_273
*832 FILLER_31_279
*833 FILLER_31_281
*834 FILLER_31_293
*835 FILLER_31_3
*836 FILLER_31_39
*837 FILLER_31_51
*838 FILLER_31_55
*839 FILLER_31_57
*840 FILLER_31_69
*841 FILLER_31_81
*842 FILLER_31_93
*843 FILLER_32_109
*844 FILLER_32_121
*845 FILLER_32_133
*846 FILLER_32_139
*847 FILLER_32_141
*848 FILLER_32_153
*849 FILLER_32_165
*850 FILLER_32_177
*851 FILLER_32_189
*852 FILLER_32_195
*853 FILLER_32_197
*854 FILLER_32_209
*855 FILLER_32_21
*856 FILLER_32_221
*857 FILLER_32_233
*858 FILLER_32_245
*859 FILLER_32_251
*860 FILLER_32_253
*861 FILLER_32_265
*862 FILLER_32_27
*863 FILLER_32_277
*864 FILLER_32_289
*865 FILLER_32_29
*866 FILLER_32_297
*867 FILLER_32_3
*868 FILLER_32_41
*869 FILLER_32_53
*870 FILLER_32_65
*871 FILLER_32_77
*872 FILLER_32_83
*873 FILLER_32_85
*874 FILLER_32_9
*875 FILLER_32_97
*876 FILLER_33_105
*877 FILLER_33_111
*878 FILLER_33_113
*879 FILLER_33_125
*880 FILLER_33_137
*881 FILLER_33_149
*882 FILLER_33_161
*883 FILLER_33_167
*884 FILLER_33_169
*885 FILLER_33_18
*886 FILLER_33_181
*887 FILLER_33_193
*888 FILLER_33_205
*889 FILLER_33_217
*890 FILLER_33_223
*891 FILLER_33_225
*892 FILLER_33_237
*893 FILLER_33_249
*894 FILLER_33_261
*895 FILLER_33_273
*896 FILLER_33_279
*897 FILLER_33_281
*898 FILLER_33_293
*899 FILLER_33_3
*900 FILLER_33_30
*901 FILLER_33_42
*902 FILLER_33_54
*903 FILLER_33_57
*904 FILLER_33_69
*905 FILLER_33_81
*906 FILLER_33_9
*907 FILLER_33_93
*908 FILLER_34_109
*909 FILLER_34_121
*910 FILLER_34_133
*911 FILLER_34_139
*912 FILLER_34_141
*913 FILLER_34_153
*914 FILLER_34_16
*915 FILLER_34_165
*916 FILLER_34_177
*917 FILLER_34_189
*918 FILLER_34_195
*919 FILLER_34_197
*920 FILLER_34_209
*921 FILLER_34_221
*922 FILLER_34_233
*923 FILLER_34_245
*924 FILLER_34_251
*925 FILLER_34_253
*926 FILLER_34_265
*927 FILLER_34_277
*928 FILLER_34_289
*929 FILLER_34_29
*930 FILLER_34_297
*931 FILLER_34_41
*932 FILLER_34_53
*933 FILLER_34_65
*934 FILLER_34_77
*935 FILLER_34_83
*936 FILLER_34_85
*937 FILLER_34_97
*938 FILLER_35_105
*939 FILLER_35_111
*940 FILLER_35_113
*941 FILLER_35_125
*942 FILLER_35_137
*943 FILLER_35_149
*944 FILLER_35_161
*945 FILLER_35_167
*946 FILLER_35_169
*947 FILLER_35_17
*948 FILLER_35_181
*949 FILLER_35_193
*950 FILLER_35_205
*951 FILLER_35_217
*952 FILLER_35_22
*953 FILLER_35_223
*954 FILLER_35_225
*955 FILLER_35_237
*956 FILLER_35_249
*957 FILLER_35_261
*958 FILLER_35_273
*959 FILLER_35_279
*960 FILLER_35_281
*961 FILLER_35_293
*962 FILLER_35_3
*963 FILLER_35_30
*964 FILLER_35_42
*965 FILLER_35_54
*966 FILLER_35_57
*967 FILLER_35_69
*968 FILLER_35_81
*969 FILLER_35_9
*970 FILLER_35_93
*971 FILLER_36_109
*972 FILLER_36_121
*973 FILLER_36_133
*974 FILLER_36_139
*975 FILLER_36_141
*976 FILLER_36_15
*977 FILLER_36_153
*978 FILLER_36_165
*979 FILLER_36_177
*980 FILLER_36_189
*981 FILLER_36_195
*982 FILLER_36_197
*983 FILLER_36_209
*984 FILLER_36_221
*985 FILLER_36_233
*986 FILLER_36_245
*987 FILLER_36_251
*988 FILLER_36_253
*989 FILLER_36_265
*990 FILLER_36_27
*991 FILLER_36_277
*992 FILLER_36_289
*993 FILLER_36_29
*994 FILLER_36_297
*995 FILLER_36_3
*996 FILLER_36_41
*997 FILLER_36_53
*998 FILLER_36_65
*999 FILLER_36_77
*1000 FILLER_36_83
*1001 FILLER_36_85
*1002 FILLER_36_97
*1003 FILLER_37_105
*1004 FILLER_37_11
*1005 FILLER_37_111
*1006 FILLER_37_113
*1007 FILLER_37_125
*1008 FILLER_37_137
*1009 FILLER_37_149
*1010 FILLER_37_16
*1011 FILLER_37_161
*1012 FILLER_37_167
*1013 FILLER_37_169
*1014 FILLER_37_181
*1015 FILLER_37_193
*1016 FILLER_37_205
*1017 FILLER_37_217
*1018 FILLER_37_223
*1019 FILLER_37_225
*1020 FILLER_37_237
*1021 FILLER_37_249
*1022 FILLER_37_261
*1023 FILLER_37_273
*1024 FILLER_37_279
*1025 FILLER_37_28
*1026 FILLER_37_281
*1027 FILLER_37_293
*1028 FILLER_37_3
*1029 FILLER_37_40
*1030 FILLER_37_52
*1031 FILLER_37_57
*1032 FILLER_37_69
*1033 FILLER_37_81
*1034 FILLER_37_93
*1035 FILLER_38_109
*1036 FILLER_38_121
*1037 FILLER_38_133
*1038 FILLER_38_139
*1039 FILLER_38_141
*1040 FILLER_38_153
*1041 FILLER_38_165
*1042 FILLER_38_177
*1043 FILLER_38_189
*1044 FILLER_38_195
*1045 FILLER_38_197
*1046 FILLER_38_209
*1047 FILLER_38_221
*1048 FILLER_38_233
*1049 FILLER_38_24
*1050 FILLER_38_245
*1051 FILLER_38_251
*1052 FILLER_38_253
*1053 FILLER_38_265
*1054 FILLER_38_277
*1055 FILLER_38_289
*1056 FILLER_38_29
*1057 FILLER_38_297
*1058 FILLER_38_3
*1059 FILLER_38_41
*1060 FILLER_38_53
*1061 FILLER_38_65
*1062 FILLER_38_77
*1063 FILLER_38_83
*1064 FILLER_38_85
*1065 FILLER_38_97
*1066 FILLER_39_105
*1067 FILLER_39_111
*1068 FILLER_39_113
*1069 FILLER_39_125
*1070 FILLER_39_137
*1071 FILLER_39_149
*1072 FILLER_39_161
*1073 FILLER_39_167
*1074 FILLER_39_169
*1075 FILLER_39_181
*1076 FILLER_39_193
*1077 FILLER_39_205
*1078 FILLER_39_217
*1079 FILLER_39_223
*1080 FILLER_39_225
*1081 FILLER_39_237
*1082 FILLER_39_249
*1083 FILLER_39_261
*1084 FILLER_39_273
*1085 FILLER_39_279
*1086 FILLER_39_28
*1087 FILLER_39_281
*1088 FILLER_39_293
*1089 FILLER_39_3
*1090 FILLER_39_40
*1091 FILLER_39_52
*1092 FILLER_39_57
*1093 FILLER_39_69
*1094 FILLER_39_7
*1095 FILLER_39_81
*1096 FILLER_39_93
*1097 FILLER_3_105
*1098 FILLER_3_111
*1099 FILLER_3_113
*1100 FILLER_3_125
*1101 FILLER_3_137
*1102 FILLER_3_149
*1103 FILLER_3_15
*1104 FILLER_3_161
*1105 FILLER_3_167
*1106 FILLER_3_169
*1107 FILLER_3_181
*1108 FILLER_3_193
*1109 FILLER_3_205
*1110 FILLER_3_217
*1111 FILLER_3_223
*1112 FILLER_3_225
*1113 FILLER_3_237
*1114 FILLER_3_249
*1115 FILLER_3_261
*1116 FILLER_3_27
*1117 FILLER_3_273
*1118 FILLER_3_279
*1119 FILLER_3_281
*1120 FILLER_3_293
*1121 FILLER_3_3
*1122 FILLER_3_39
*1123 FILLER_3_51
*1124 FILLER_3_55
*1125 FILLER_3_57
*1126 FILLER_3_69
*1127 FILLER_3_81
*1128 FILLER_3_93
*1129 FILLER_40_109
*1130 FILLER_40_121
*1131 FILLER_40_133
*1132 FILLER_40_139
*1133 FILLER_40_141
*1134 FILLER_40_153
*1135 FILLER_40_165
*1136 FILLER_40_177
*1137 FILLER_40_189
*1138 FILLER_40_195
*1139 FILLER_40_197
*1140 FILLER_40_209
*1141 FILLER_40_221
*1142 FILLER_40_233
*1143 FILLER_40_24
*1144 FILLER_40_245
*1145 FILLER_40_251
*1146 FILLER_40_253
*1147 FILLER_40_265
*1148 FILLER_40_277
*1149 FILLER_40_289
*1150 FILLER_40_29
*1151 FILLER_40_297
*1152 FILLER_40_3
*1153 FILLER_40_41
*1154 FILLER_40_53
*1155 FILLER_40_65
*1156 FILLER_40_77
*1157 FILLER_40_83
*1158 FILLER_40_85
*1159 FILLER_40_97
*1160 FILLER_41_105
*1161 FILLER_41_11
*1162 FILLER_41_111
*1163 FILLER_41_113
*1164 FILLER_41_125
*1165 FILLER_41_137
*1166 FILLER_41_149
*1167 FILLER_41_15
*1168 FILLER_41_161
*1169 FILLER_41_167
*1170 FILLER_41_169
*1171 FILLER_41_181
*1172 FILLER_41_193
*1173 FILLER_41_205
*1174 FILLER_41_217
*1175 FILLER_41_223
*1176 FILLER_41_225
*1177 FILLER_41_237
*1178 FILLER_41_249
*1179 FILLER_41_261
*1180 FILLER_41_273
*1181 FILLER_41_279
*1182 FILLER_41_281
*1183 FILLER_41_293
*1184 FILLER_41_3
*1185 FILLER_41_36
*1186 FILLER_41_48
*1187 FILLER_41_57
*1188 FILLER_41_69
*1189 FILLER_41_81
*1190 FILLER_41_93
*1191 FILLER_42_109
*1192 FILLER_42_121
*1193 FILLER_42_133
*1194 FILLER_42_139
*1195 FILLER_42_141
*1196 FILLER_42_153
*1197 FILLER_42_165
*1198 FILLER_42_177
*1199 FILLER_42_189
*1200 FILLER_42_195
*1201 FILLER_42_197
*1202 FILLER_42_209
*1203 FILLER_42_221
*1204 FILLER_42_233
*1205 FILLER_42_24
*1206 FILLER_42_245
*1207 FILLER_42_251
*1208 FILLER_42_253
*1209 FILLER_42_265
*1210 FILLER_42_277
*1211 FILLER_42_289
*1212 FILLER_42_29
*1213 FILLER_42_297
*1214 FILLER_42_3
*1215 FILLER_42_41
*1216 FILLER_42_53
*1217 FILLER_42_65
*1218 FILLER_42_77
*1219 FILLER_42_83
*1220 FILLER_42_85
*1221 FILLER_42_97
*1222 FILLER_43_10
*1223 FILLER_43_105
*1224 FILLER_43_111
*1225 FILLER_43_113
*1226 FILLER_43_125
*1227 FILLER_43_137
*1228 FILLER_43_149
*1229 FILLER_43_161
*1230 FILLER_43_167
*1231 FILLER_43_169
*1232 FILLER_43_181
*1233 FILLER_43_193
*1234 FILLER_43_205
*1235 FILLER_43_21
*1236 FILLER_43_217
*1237 FILLER_43_223
*1238 FILLER_43_225
*1239 FILLER_43_237
*1240 FILLER_43_249
*1241 FILLER_43_261
*1242 FILLER_43_273
*1243 FILLER_43_279
*1244 FILLER_43_281
*1245 FILLER_43_293
*1246 FILLER_43_33
*1247 FILLER_43_45
*1248 FILLER_43_53
*1249 FILLER_43_57
*1250 FILLER_43_69
*1251 FILLER_43_81
*1252 FILLER_43_93
*1253 FILLER_44_109
*1254 FILLER_44_121
*1255 FILLER_44_133
*1256 FILLER_44_139
*1257 FILLER_44_141
*1258 FILLER_44_153
*1259 FILLER_44_16
*1260 FILLER_44_165
*1261 FILLER_44_177
*1262 FILLER_44_189
*1263 FILLER_44_195
*1264 FILLER_44_197
*1265 FILLER_44_209
*1266 FILLER_44_221
*1267 FILLER_44_233
*1268 FILLER_44_245
*1269 FILLER_44_251
*1270 FILLER_44_253
*1271 FILLER_44_265
*1272 FILLER_44_277
*1273 FILLER_44_289
*1274 FILLER_44_29
*1275 FILLER_44_297
*1276 FILLER_44_41
*1277 FILLER_44_53
*1278 FILLER_44_65
*1279 FILLER_44_77
*1280 FILLER_44_83
*1281 FILLER_44_85
*1282 FILLER_44_97
*1283 FILLER_45_10
*1284 FILLER_45_105
*1285 FILLER_45_111
*1286 FILLER_45_113
*1287 FILLER_45_125
*1288 FILLER_45_137
*1289 FILLER_45_149
*1290 FILLER_45_161
*1291 FILLER_45_167
*1292 FILLER_45_169
*1293 FILLER_45_181
*1294 FILLER_45_193
*1295 FILLER_45_205
*1296 FILLER_45_217
*1297 FILLER_45_223
*1298 FILLER_45_225
*1299 FILLER_45_237
*1300 FILLER_45_249
*1301 FILLER_45_261
*1302 FILLER_45_273
*1303 FILLER_45_279
*1304 FILLER_45_281
*1305 FILLER_45_293
*1306 FILLER_45_34
*1307 FILLER_45_46
*1308 FILLER_45_54
*1309 FILLER_45_57
*1310 FILLER_45_69
*1311 FILLER_45_81
*1312 FILLER_45_93
*1313 FILLER_46_109
*1314 FILLER_46_121
*1315 FILLER_46_133
*1316 FILLER_46_139
*1317 FILLER_46_141
*1318 FILLER_46_153
*1319 FILLER_46_165
*1320 FILLER_46_177
*1321 FILLER_46_189
*1322 FILLER_46_195
*1323 FILLER_46_197
*1324 FILLER_46_209
*1325 FILLER_46_221
*1326 FILLER_46_233
*1327 FILLER_46_24
*1328 FILLER_46_245
*1329 FILLER_46_251
*1330 FILLER_46_253
*1331 FILLER_46_265
*1332 FILLER_46_277
*1333 FILLER_46_289
*1334 FILLER_46_29
*1335 FILLER_46_297
*1336 FILLER_46_3
*1337 FILLER_46_41
*1338 FILLER_46_53
*1339 FILLER_46_65
*1340 FILLER_46_77
*1341 FILLER_46_83
*1342 FILLER_46_85
*1343 FILLER_46_97
*1344 FILLER_47_105
*1345 FILLER_47_111
*1346 FILLER_47_113
*1347 FILLER_47_125
*1348 FILLER_47_137
*1349 FILLER_47_149
*1350 FILLER_47_161
*1351 FILLER_47_167
*1352 FILLER_47_169
*1353 FILLER_47_181
*1354 FILLER_47_193
*1355 FILLER_47_205
*1356 FILLER_47_21
*1357 FILLER_47_217
*1358 FILLER_47_223
*1359 FILLER_47_225
*1360 FILLER_47_237
*1361 FILLER_47_249
*1362 FILLER_47_261
*1363 FILLER_47_273
*1364 FILLER_47_279
*1365 FILLER_47_281
*1366 FILLER_47_293
*1367 FILLER_47_3
*1368 FILLER_47_33
*1369 FILLER_47_45
*1370 FILLER_47_53
*1371 FILLER_47_57
*1372 FILLER_47_69
*1373 FILLER_47_81
*1374 FILLER_47_9
*1375 FILLER_47_93
*1376 FILLER_48_109
*1377 FILLER_48_121
*1378 FILLER_48_133
*1379 FILLER_48_139
*1380 FILLER_48_141
*1381 FILLER_48_153
*1382 FILLER_48_165
*1383 FILLER_48_177
*1384 FILLER_48_189
*1385 FILLER_48_195
*1386 FILLER_48_197
*1387 FILLER_48_209
*1388 FILLER_48_21
*1389 FILLER_48_221
*1390 FILLER_48_233
*1391 FILLER_48_245
*1392 FILLER_48_251
*1393 FILLER_48_253
*1394 FILLER_48_265
*1395 FILLER_48_27
*1396 FILLER_48_277
*1397 FILLER_48_289
*1398 FILLER_48_29
*1399 FILLER_48_297
*1400 FILLER_48_3
*1401 FILLER_48_41
*1402 FILLER_48_53
*1403 FILLER_48_65
*1404 FILLER_48_77
*1405 FILLER_48_83
*1406 FILLER_48_85
*1407 FILLER_48_9
*1408 FILLER_48_97
*1409 FILLER_49_105
*1410 FILLER_49_111
*1411 FILLER_49_113
*1412 FILLER_49_125
*1413 FILLER_49_137
*1414 FILLER_49_149
*1415 FILLER_49_15
*1416 FILLER_49_161
*1417 FILLER_49_167
*1418 FILLER_49_169
*1419 FILLER_49_181
*1420 FILLER_49_193
*1421 FILLER_49_205
*1422 FILLER_49_217
*1423 FILLER_49_223
*1424 FILLER_49_225
*1425 FILLER_49_237
*1426 FILLER_49_249
*1427 FILLER_49_261
*1428 FILLER_49_27
*1429 FILLER_49_273
*1430 FILLER_49_279
*1431 FILLER_49_281
*1432 FILLER_49_293
*1433 FILLER_49_3
*1434 FILLER_49_39
*1435 FILLER_49_51
*1436 FILLER_49_55
*1437 FILLER_49_57
*1438 FILLER_49_69
*1439 FILLER_49_81
*1440 FILLER_49_93
*1441 FILLER_4_109
*1442 FILLER_4_121
*1443 FILLER_4_133
*1444 FILLER_4_139
*1445 FILLER_4_141
*1446 FILLER_4_15
*1447 FILLER_4_153
*1448 FILLER_4_165
*1449 FILLER_4_177
*1450 FILLER_4_189
*1451 FILLER_4_195
*1452 FILLER_4_197
*1453 FILLER_4_209
*1454 FILLER_4_221
*1455 FILLER_4_233
*1456 FILLER_4_245
*1457 FILLER_4_251
*1458 FILLER_4_253
*1459 FILLER_4_265
*1460 FILLER_4_27
*1461 FILLER_4_277
*1462 FILLER_4_289
*1463 FILLER_4_29
*1464 FILLER_4_297
*1465 FILLER_4_3
*1466 FILLER_4_41
*1467 FILLER_4_53
*1468 FILLER_4_65
*1469 FILLER_4_77
*1470 FILLER_4_83
*1471 FILLER_4_85
*1472 FILLER_4_97
*1473 FILLER_50_109
*1474 FILLER_50_121
*1475 FILLER_50_133
*1476 FILLER_50_139
*1477 FILLER_50_141
*1478 FILLER_50_15
*1479 FILLER_50_153
*1480 FILLER_50_165
*1481 FILLER_50_177
*1482 FILLER_50_189
*1483 FILLER_50_195
*1484 FILLER_50_197
*1485 FILLER_50_209
*1486 FILLER_50_221
*1487 FILLER_50_233
*1488 FILLER_50_245
*1489 FILLER_50_251
*1490 FILLER_50_253
*1491 FILLER_50_265
*1492 FILLER_50_27
*1493 FILLER_50_277
*1494 FILLER_50_289
*1495 FILLER_50_29
*1496 FILLER_50_297
*1497 FILLER_50_3
*1498 FILLER_50_41
*1499 FILLER_50_53
*1500 FILLER_50_65
*1501 FILLER_50_77
*1502 FILLER_50_83
*1503 FILLER_50_85
*1504 FILLER_50_97
*1505 FILLER_51_105
*1506 FILLER_51_111
*1507 FILLER_51_113
*1508 FILLER_51_125
*1509 FILLER_51_137
*1510 FILLER_51_149
*1511 FILLER_51_15
*1512 FILLER_51_161
*1513 FILLER_51_167
*1514 FILLER_51_169
*1515 FILLER_51_181
*1516 FILLER_51_193
*1517 FILLER_51_205
*1518 FILLER_51_217
*1519 FILLER_51_223
*1520 FILLER_51_225
*1521 FILLER_51_237
*1522 FILLER_51_249
*1523 FILLER_51_261
*1524 FILLER_51_27
*1525 FILLER_51_273
*1526 FILLER_51_279
*1527 FILLER_51_281
*1528 FILLER_51_293
*1529 FILLER_51_3
*1530 FILLER_51_39
*1531 FILLER_51_51
*1532 FILLER_51_55
*1533 FILLER_51_57
*1534 FILLER_51_69
*1535 FILLER_51_81
*1536 FILLER_51_93
*1537 FILLER_52_109
*1538 FILLER_52_121
*1539 FILLER_52_133
*1540 FILLER_52_139
*1541 FILLER_52_141
*1542 FILLER_52_15
*1543 FILLER_52_153
*1544 FILLER_52_165
*1545 FILLER_52_177
*1546 FILLER_52_189
*1547 FILLER_52_195
*1548 FILLER_52_197
*1549 FILLER_52_209
*1550 FILLER_52_221
*1551 FILLER_52_233
*1552 FILLER_52_245
*1553 FILLER_52_251
*1554 FILLER_52_253
*1555 FILLER_52_265
*1556 FILLER_52_27
*1557 FILLER_52_277
*1558 FILLER_52_289
*1559 FILLER_52_29
*1560 FILLER_52_297
*1561 FILLER_52_3
*1562 FILLER_52_41
*1563 FILLER_52_53
*1564 FILLER_52_65
*1565 FILLER_52_77
*1566 FILLER_52_83
*1567 FILLER_52_85
*1568 FILLER_52_97
*1569 FILLER_53_105
*1570 FILLER_53_111
*1571 FILLER_53_113
*1572 FILLER_53_125
*1573 FILLER_53_137
*1574 FILLER_53_149
*1575 FILLER_53_15
*1576 FILLER_53_161
*1577 FILLER_53_167
*1578 FILLER_53_169
*1579 FILLER_53_181
*1580 FILLER_53_193
*1581 FILLER_53_205
*1582 FILLER_53_217
*1583 FILLER_53_223