*SPEF "ieee 1481-1999"
*DESIGN "user_module_341620484740219475"
*DATE "11:11:11 Fri 11 11, 1111"
*VENDOR "OpenRCX"
*PROGRAM "Parallel Extraction"
*VERSION "1.0"
*DESIGN_FLOW "NAME_SCOPE LOCAL" "PIN_CAP NONE"
*DIVIDER /
*DELIMITER :
*BUS_DELIMITER []
*T_UNIT 1 NS
*C_UNIT 1 PF
*R_UNIT 1 OHM
*L_UNIT 1 HENRY

*NAME_MAP
*1 io_in[0]
*2 io_in[1]
*3 io_in[2]
*4 io_in[3]
*5 io_in[4]
*6 io_in[5]
*7 io_in[6]
*8 io_in[7]
*9 io_out[0]
*10 io_out[1]
*11 io_out[2]
*12 io_out[3]
*13 io_out[4]
*14 io_out[5]
*15 io_out[6]
*16 io_out[7]
*19 _000_
*20 _001_
*21 _002_
*22 _003_
*23 _004_
*24 _005_
*25 _006_
*26 _007_
*27 _008_
*28 _009_
*29 _010_
*30 _011_
*31 _012_
*32 _013_
*33 _014_
*34 _015_
*35 _016_
*36 _017_
*37 _018_
*38 _019_
*39 _020_
*40 _021_
*41 _022_
*42 _023_
*43 _024_
*44 _025_
*45 _026_
*46 _027_
*47 _028_
*48 _029_
*49 _030_
*50 _031_
*51 _032_
*52 _033_
*53 _034_
*54 _035_
*55 _036_
*56 _037_
*57 _038_
*58 _039_
*59 _040_
*60 _041_
*61 _042_
*62 _043_
*63 _044_
*64 _045_
*65 _046_
*66 _047_
*67 _048_
*68 _049_
*69 _050_
*70 _051_
*71 _052_
*72 _053_
*73 _054_
*74 _055_
*75 _056_
*76 _057_
*77 _058_
*78 _059_
*79 _060_
*80 _061_
*81 _062_
*82 _063_
*83 _064_
*84 _065_
*85 _066_
*86 _067_
*87 _068_
*88 _069_
*89 _070_
*90 _071_
*91 _072_
*92 _073_
*93 _074_
*94 _075_
*95 _076_
*96 _077_
*97 _078_
*98 _079_
*99 _080_
*100 _081_
*101 _082_
*102 _083_
*103 _084_
*104 _085_
*105 _086_
*106 _087_
*107 _088_
*108 _089_
*109 _090_
*110 _091_
*111 _092_
*112 _093_
*113 _094_
*114 _095_
*115 _096_
*116 _097_
*117 _098_
*118 _099_
*119 _100_
*120 _101_
*121 _102_
*122 _103_
*123 _104_
*124 _105_
*125 _106_
*126 _107_
*127 _108_
*128 _109_
*129 _110_
*130 _111_
*131 _112_
*132 clknet_0_io_in[0]
*133 clknet_3_0__leaf_io_in[0]
*134 clknet_3_1__leaf_io_in[0]
*135 clknet_3_2__leaf_io_in[0]
*136 clknet_3_3__leaf_io_in[0]
*137 clknet_3_4__leaf_io_in[0]
*138 clknet_3_5__leaf_io_in[0]
*139 clknet_3_6__leaf_io_in[0]
*140 clknet_3_7__leaf_io_in[0]
*141 flipflop1\.d
*142 flipflop1\.q
*143 flipflop10\.d
*144 flipflop10\.q
*145 flipflop11\.d
*146 flipflop11\.q
*147 flipflop12\.d
*148 flipflop12\.q
*149 flipflop13\.d
*150 flipflop13\.q
*151 flipflop14\.d
*152 flipflop14\.q
*153 flipflop15\.q
*154 flipflop16\.q
*155 flipflop17\.q
*156 flipflop18\.d
*157 flipflop18\.q
*158 flipflop19\.d
*159 flipflop19\.q
*160 flipflop2\.q
*161 flipflop20\.d
*162 flipflop20\.q
*163 flipflop21\.q
*164 flipflop22\.q
*165 flipflop23\.q
*166 flipflop24\.q
*167 flipflop25\.q
*168 flipflop26\.q
*169 flipflop27\.q
*170 flipflop28\.q
*171 flipflop29\.q
*172 flipflop30\.q
*173 flipflop31\.q
*174 flipflop32\.q
*175 flipflop33\.q
*176 flipflop34\.q
*177 flipflop35\.q
*178 flipflop36\.q
*179 flipflop37\.q
*180 flipflop38\.q
*181 flipflop39\.q
*182 flipflop4\.d
*183 flipflop40\.q
*184 flipflop41\.q
*185 flipflop42\.q
*186 flipflop43\.q
*187 flipflop44\.q
*188 flipflop45\.q
*189 flipflop46\.q
*190 flipflop47\.q
*191 flipflop48\.q
*192 flipflop49\.q
*193 flipflop5\.d
*194 flipflop50\.q
*195 flipflop51\.q
*196 flipflop52\.q
*197 flipflop53\.q
*198 flipflop54\.q
*199 flipflop55\.q
*200 flipflop56\.q
*201 flipflop57\.q
*202 flipflop58\.q
*203 flipflop59\.q
*204 flipflop60\.q
*205 flipflop61\.q
*206 flipflop65\.q
*207 flipflop66\.d
*208 flipflop66\.q
*209 flipflop68\.d
*210 flipflop68\.q
*211 mux15\.out
*212 mux22\.out
*213 mux29\.out
*214 mux36\.out
*215 mux43\.out
*216 mux50\.out
*217 mux57\.out
*218 mux8\.out
*219 net1
*220 net10
*221 net11
*222 net12
*223 net13
*224 net14
*225 net15
*226 net16
*227 net17
*228 net18
*229 net19
*230 net2
*231 net20
*232 net21
*233 net22
*234 net23
*235 net24
*236 net25
*237 net26
*238 net27
*239 net28
*240 net29
*241 net3
*242 net30
*243 net31
*244 net32
*245 net33
*246 net34
*247 net35
*248 net36
*249 net37
*250 net38
*251 net39
*252 net4
*253 net40
*254 net41
*255 net42
*256 net43
*257 net44
*258 net45
*259 net46
*260 net47
*261 net48
*262 net5
*263 net6
*264 net7
*265 net8
*266 net9
*267 FILLER_0_101
*268 FILLER_0_109
*269 FILLER_0_129
*270 FILLER_0_137
*271 FILLER_0_141
*272 FILLER_0_153
*273 FILLER_0_165
*274 FILLER_0_169
*275 FILLER_0_181
*276 FILLER_0_193
*277 FILLER_0_197
*278 FILLER_0_209
*279 FILLER_0_221
*280 FILLER_0_225
*281 FILLER_0_237
*282 FILLER_0_24
*283 FILLER_0_249
*284 FILLER_0_253
*285 FILLER_0_265
*286 FILLER_0_277
*287 FILLER_0_281
*288 FILLER_0_29
*289 FILLER_0_293
*290 FILLER_0_3
*291 FILLER_0_35
*292 FILLER_0_52
*293 FILLER_0_57
*294 FILLER_0_61
*295 FILLER_0_7
*296 FILLER_0_78
*297 FILLER_10_101
*298 FILLER_10_111
*299 FILLER_10_120
*300 FILLER_10_128
*301 FILLER_10_136
*302 FILLER_10_147
*303 FILLER_10_159
*304 FILLER_10_167
*305 FILLER_10_172
*306 FILLER_10_184
*307 FILLER_10_197
*308 FILLER_10_209
*309 FILLER_10_221
*310 FILLER_10_233
*311 FILLER_10_24
*312 FILLER_10_245
*313 FILLER_10_251
*314 FILLER_10_253
*315 FILLER_10_265
*316 FILLER_10_277
*317 FILLER_10_289
*318 FILLER_10_29
*319 FILLER_10_297
*320 FILLER_10_3
*321 FILLER_10_33
*322 FILLER_10_42
*323 FILLER_10_66
*324 FILLER_10_7
*325 FILLER_10_80
*326 FILLER_11_108
*327 FILLER_11_113
*328 FILLER_11_12
*329 FILLER_11_125
*330 FILLER_11_134
*331 FILLER_11_152
*332 FILLER_11_164
*333 FILLER_11_169
*334 FILLER_11_181
*335 FILLER_11_193
*336 FILLER_11_205
*337 FILLER_11_217
*338 FILLER_11_223
*339 FILLER_11_225
*340 FILLER_11_237
*341 FILLER_11_249
*342 FILLER_11_261
*343 FILLER_11_273
*344 FILLER_11_279
*345 FILLER_11_281
*346 FILLER_11_293
*347 FILLER_11_3
*348 FILLER_11_36
*349 FILLER_11_52
*350 FILLER_11_57
*351 FILLER_11_61
*352 FILLER_11_78
*353 FILLER_11_98
*354 FILLER_12_105
*355 FILLER_12_117
*356 FILLER_12_129
*357 FILLER_12_136
*358 FILLER_12_147
*359 FILLER_12_159
*360 FILLER_12_167
*361 FILLER_12_178
*362 FILLER_12_190
*363 FILLER_12_197
*364 FILLER_12_209
*365 FILLER_12_221
*366 FILLER_12_233
*367 FILLER_12_24
*368 FILLER_12_245
*369 FILLER_12_251
*370 FILLER_12_253
*371 FILLER_12_265
*372 FILLER_12_277
*373 FILLER_12_289
*374 FILLER_12_29
*375 FILLER_12_297
*376 FILLER_12_3
*377 FILLER_12_41
*378 FILLER_12_65
*379 FILLER_12_7
*380 FILLER_12_77
*381 FILLER_12_83
*382 FILLER_12_93
*383 FILLER_13_111
*384 FILLER_13_113
*385 FILLER_13_12
*386 FILLER_13_125
*387 FILLER_13_137
*388 FILLER_13_144
*389 FILLER_13_156
*390 FILLER_13_169
*391 FILLER_13_181
*392 FILLER_13_193
*393 FILLER_13_205
*394 FILLER_13_217
*395 FILLER_13_223
*396 FILLER_13_225
*397 FILLER_13_237
*398 FILLER_13_249
*399 FILLER_13_261
*400 FILLER_13_273
*401 FILLER_13_279
*402 FILLER_13_281
*403 FILLER_13_29
*404 FILLER_13_293
*405 FILLER_13_49
*406 FILLER_13_55
*407 FILLER_13_57
*408 FILLER_13_6
*409 FILLER_13_79
*410 FILLER_13_99
*411 FILLER_14_105
*412 FILLER_14_120
*413 FILLER_14_132
*414 FILLER_14_141
*415 FILLER_14_153
*416 FILLER_14_165
*417 FILLER_14_177
*418 FILLER_14_189
*419 FILLER_14_195
*420 FILLER_14_197
*421 FILLER_14_209
*422 FILLER_14_221
*423 FILLER_14_233
*424 FILLER_14_24
*425 FILLER_14_245
*426 FILLER_14_251
*427 FILLER_14_253
*428 FILLER_14_265
*429 FILLER_14_277
*430 FILLER_14_289
*431 FILLER_14_297
*432 FILLER_14_3
*433 FILLER_14_32
*434 FILLER_14_54
*435 FILLER_14_62
*436 FILLER_14_7
*437 FILLER_14_80
*438 FILLER_14_93
*439 FILLER_15_108
*440 FILLER_15_123
*441 FILLER_15_129
*442 FILLER_15_134
*443 FILLER_15_146
*444 FILLER_15_158
*445 FILLER_15_166
*446 FILLER_15_169
*447 FILLER_15_181
*448 FILLER_15_193
*449 FILLER_15_205
*450 FILLER_15_217
*451 FILLER_15_223
*452 FILLER_15_225
*453 FILLER_15_237
*454 FILLER_15_24
*455 FILLER_15_249
*456 FILLER_15_261
*457 FILLER_15_273
*458 FILLER_15_279
*459 FILLER_15_281
*460 FILLER_15_293
*461 FILLER_15_3
*462 FILLER_15_52
*463 FILLER_15_57
*464 FILLER_15_7
*465 FILLER_15_81
*466 FILLER_15_93
*467 FILLER_16_101
*468 FILLER_16_109
*469 FILLER_16_119
*470 FILLER_16_131
*471 FILLER_16_139
*472 FILLER_16_141
*473 FILLER_16_153
*474 FILLER_16_165
*475 FILLER_16_177
*476 FILLER_16_189
*477 FILLER_16_195
*478 FILLER_16_197
*479 FILLER_16_209
*480 FILLER_16_221
*481 FILLER_16_233
*482 FILLER_16_24
*483 FILLER_16_245
*484 FILLER_16_251
*485 FILLER_16_253
*486 FILLER_16_265
*487 FILLER_16_277
*488 FILLER_16_289
*489 FILLER_16_297
*490 FILLER_16_3
*491 FILLER_16_37
*492 FILLER_16_65
*493 FILLER_16_7
*494 FILLER_16_77
*495 FILLER_16_83
*496 FILLER_16_93
*497 FILLER_17_100
*498 FILLER_17_108
*499 FILLER_17_118
*500 FILLER_17_12
*501 FILLER_17_130
*502 FILLER_17_140
*503 FILLER_17_152
*504 FILLER_17_164
*505 FILLER_17_169
*506 FILLER_17_181
*507 FILLER_17_193
*508 FILLER_17_205
*509 FILLER_17_217
*510 FILLER_17_223
*511 FILLER_17_225
*512 FILLER_17_237
*513 FILLER_17_249
*514 FILLER_17_261
*515 FILLER_17_273
*516 FILLER_17_279
*517 FILLER_17_281
*518 FILLER_17_293
*519 FILLER_17_3
*520 FILLER_17_36
*521 FILLER_17_52
*522 FILLER_17_57
*523 FILLER_17_63
*524 FILLER_17_80
*525 FILLER_17_92
*526 FILLER_18_101
*527 FILLER_18_112
*528 FILLER_18_121
*529 FILLER_18_136
*530 FILLER_18_141
*531 FILLER_18_153
*532 FILLER_18_165
*533 FILLER_18_177
*534 FILLER_18_189
*535 FILLER_18_195
*536 FILLER_18_197
*537 FILLER_18_209
*538 FILLER_18_221
*539 FILLER_18_233
*540 FILLER_18_24
*541 FILLER_18_245
*542 FILLER_18_251
*543 FILLER_18_253
*544 FILLER_18_265
*545 FILLER_18_277
*546 FILLER_18_289
*547 FILLER_18_29
*548 FILLER_18_297
*549 FILLER_18_3
*550 FILLER_18_38
*551 FILLER_18_58
*552 FILLER_18_7
*553 FILLER_18_78
*554 FILLER_19_106
*555 FILLER_19_120
*556 FILLER_19_138
*557 FILLER_19_150
*558 FILLER_19_162
*559 FILLER_19_169
*560 FILLER_19_181
*561 FILLER_19_193
*562 FILLER_19_205
*563 FILLER_19_217
*564 FILLER_19_223
*565 FILLER_19_225
*566 FILLER_19_237
*567 FILLER_19_249
*568 FILLER_19_25
*569 FILLER_19_261
*570 FILLER_19_273
*571 FILLER_19_279
*572 FILLER_19_281
*573 FILLER_19_293
*574 FILLER_19_3
*575 FILLER_19_33
*576 FILLER_19_52
*577 FILLER_19_57
*578 FILLER_19_63
*579 FILLER_19_80
*580 FILLER_19_92
*581 FILLER_19_98
*582 FILLER_1_105
*583 FILLER_1_111
*584 FILLER_1_12
*585 FILLER_1_121
*586 FILLER_1_133
*587 FILLER_1_145
*588 FILLER_1_157
*589 FILLER_1_165
*590 FILLER_1_169
*591 FILLER_1_181
*592 FILLER_1_193
*593 FILLER_1_205
*594 FILLER_1_217
*595 FILLER_1_223
*596 FILLER_1_225
*597 FILLER_1_237
*598 FILLER_1_249
*599 FILLER_1_261
*600 FILLER_1_273
*601 FILLER_1_279
*602 FILLER_1_281
*603 FILLER_1_293
*604 FILLER_1_3
*605 FILLER_1_36
*606 FILLER_1_52
*607 FILLER_1_57
*608 FILLER_1_69
*609 FILLER_1_93
*610 FILLER_20_108
*611 FILLER_20_117
*612 FILLER_20_129
*613 FILLER_20_137
*614 FILLER_20_141
*615 FILLER_20_153
*616 FILLER_20_165
*617 FILLER_20_177
*618 FILLER_20_189
*619 FILLER_20_195
*620 FILLER_20_197
*621 FILLER_20_209
*622 FILLER_20_221
*623 FILLER_20_233
*624 FILLER_20_24
*625 FILLER_20_245
*626 FILLER_20_251
*627 FILLER_20_253
*628 FILLER_20_265
*629 FILLER_20_277
*630 FILLER_20_289
*631 FILLER_20_29
*632 FILLER_20_297
*633 FILLER_20_3
*634 FILLER_20_35
*635 FILLER_20_52
*636 FILLER_20_7
*637 FILLER_20_80
*638 FILLER_20_85
*639 FILLER_20_97
*640 FILLER_21_105
*641 FILLER_21_111
*642 FILLER_21_113
*643 FILLER_21_125
*644 FILLER_21_137
*645 FILLER_21_149
*646 FILLER_21_161
*647 FILLER_21_167
*648 FILLER_21_169
*649 FILLER_21_181
*650 FILLER_21_193
*651 FILLER_21_205
*652 FILLER_21_217
*653 FILLER_21_223
*654 FILLER_21_225
*655 FILLER_21_237
*656 FILLER_21_24
*657 FILLER_21_249
*658 FILLER_21_261
*659 FILLER_21_273
*660 FILLER_21_279
*661 FILLER_21_281
*662 FILLER_21_293
*663 FILLER_21_3
*664 FILLER_21_46
*665 FILLER_21_54
*666 FILLER_21_57
*667 FILLER_21_63
*668 FILLER_21_7
*669 FILLER_21_80
*670 FILLER_21_88
*671 FILLER_21_96
*672 FILLER_22_101
*673 FILLER_22_109
*674 FILLER_22_121
*675 FILLER_22_133
*676 FILLER_22_139
*677 FILLER_22_141
*678 FILLER_22_153
*679 FILLER_22_165
*680 FILLER_22_177
*681 FILLER_22_189
*682 FILLER_22_195
*683 FILLER_22_197
*684 FILLER_22_209
*685 FILLER_22_21
*686 FILLER_22_221
*687 FILLER_22_233
*688 FILLER_22_245
*689 FILLER_22_251
*690 FILLER_22_253
*691 FILLER_22_265
*692 FILLER_22_27
*693 FILLER_22_277
*694 FILLER_22_289
*695 FILLER_22_29
*696 FILLER_22_297
*697 FILLER_22_3
*698 FILLER_22_43
*699 FILLER_22_57
*700 FILLER_22_65
*701 FILLER_22_74
*702 FILLER_22_82
*703 FILLER_22_85
*704 FILLER_22_97
*705 FILLER_23_103
*706 FILLER_23_111
*707 FILLER_23_123
*708 FILLER_23_13
*709 FILLER_23_135
*710 FILLER_23_147
*711 FILLER_23_159
*712 FILLER_23_167
*713 FILLER_23_169
*714 FILLER_23_17
*715 FILLER_23_181
*716 FILLER_23_193
*717 FILLER_23_205
*718 FILLER_23_217
*719 FILLER_23_223
*720 FILLER_23_225
*721 FILLER_23_237
*722 FILLER_23_249
*723 FILLER_23_26
*724 FILLER_23_261
*725 FILLER_23_273
*726 FILLER_23_279
*727 FILLER_23_281
*728 FILLER_23_293
*729 FILLER_23_38
*730 FILLER_23_47
*731 FILLER_23_55
*732 FILLER_23_57
*733 FILLER_23_69
*734 FILLER_23_81
*735 FILLER_23_91
*736 FILLER_23_95
*737 FILLER_24_106
*738 FILLER_24_115
*739 FILLER_24_127
*740 FILLER_24_135
*741 FILLER_24_139
*742 FILLER_24_141
*743 FILLER_24_153
*744 FILLER_24_165
*745 FILLER_24_177
*746 FILLER_24_18
*747 FILLER_24_189
*748 FILLER_24_195
*749 FILLER_24_197
*750 FILLER_24_209
*751 FILLER_24_221
*752 FILLER_24_233
*753 FILLER_24_245
*754 FILLER_24_251
*755 FILLER_24_253
*756 FILLER_24_26
*757 FILLER_24_265
*758 FILLER_24_277
*759 FILLER_24_289
*760 FILLER_24_29
*761 FILLER_24_297
*762 FILLER_24_37
*763 FILLER_24_46
*764 FILLER_24_55
*765 FILLER_24_6
*766 FILLER_24_63
*767 FILLER_24_70
*768 FILLER_24_82
*769 FILLER_24_85
*770 FILLER_24_95
*771 FILLER_25_10
*772 FILLER_25_108
*773 FILLER_25_113
*774 FILLER_25_125
*775 FILLER_25_137
*776 FILLER_25_149
*777 FILLER_25_161
*778 FILLER_25_167
*779 FILLER_25_169
*780 FILLER_25_181
*781 FILLER_25_19
*782 FILLER_25_193
*783 FILLER_25_205
*784 FILLER_25_217
*785 FILLER_25_223
*786 FILLER_25_225
*787 FILLER_25_237
*788 FILLER_25_249
*789 FILLER_25_261
*790 FILLER_25_27
*791 FILLER_25_273
*792 FILLER_25_279
*793 FILLER_25_281
*794 FILLER_25_293
*795 FILLER_25_34
*796 FILLER_25_46
*797 FILLER_25_54
*798 FILLER_25_6
*799 FILLER_25_60
*800 FILLER_25_64
*801 FILLER_25_73
*802 FILLER_25_84
*803 FILLER_25_96
*804 FILLER_26_105
*805 FILLER_26_117
*806 FILLER_26_129
*807 FILLER_26_13
*808 FILLER_26_137
*809 FILLER_26_141
*810 FILLER_26_153
*811 FILLER_26_165
*812 FILLER_26_177
*813 FILLER_26_189
*814 FILLER_26_195
*815 FILLER_26_197
*816 FILLER_26_209
*817 FILLER_26_221
*818 FILLER_26_233
*819 FILLER_26_24
*820 FILLER_26_245
*821 FILLER_26_251
*822 FILLER_26_253
*823 FILLER_26_265
*824 FILLER_26_277
*825 FILLER_26_289
*826 FILLER_26_29
*827 FILLER_26_297
*828 FILLER_26_3
*829 FILLER_26_39
*830 FILLER_26_53
*831 FILLER_26_68
*832 FILLER_26_72
*833 FILLER_26_80
*834 FILLER_26_93
*835 FILLER_27_108
*836 FILLER_27_11
*837 FILLER_27_113
*838 FILLER_27_125
*839 FILLER_27_137
*840 FILLER_27_149
*841 FILLER_27_161
*842 FILLER_27_167
*843 FILLER_27_169
*844 FILLER_27_181
*845 FILLER_27_193
*846 FILLER_27_205
*847 FILLER_27_217
*848 FILLER_27_22
*849 FILLER_27_223
*850 FILLER_27_225
*851 FILLER_27_237
*852 FILLER_27_249
*853 FILLER_27_261
*854 FILLER_27_273
*855 FILLER_27_279
*856 FILLER_27_281
*857 FILLER_27_293
*858 FILLER_27_3
*859 FILLER_27_33
*860 FILLER_27_52
*861 FILLER_27_57
*862 FILLER_27_63
*863 FILLER_27_72
*864 FILLER_27_83
*865 FILLER_27_92
*866 FILLER_28_10
*867 FILLER_28_100
*868 FILLER_28_120
*869 FILLER_28_132
*870 FILLER_28_141
*871 FILLER_28_153
*872 FILLER_28_165
*873 FILLER_28_177
*874 FILLER_28_189
*875 FILLER_28_195
*876 FILLER_28_197
*877 FILLER_28_209
*878 FILLER_28_21
*879 FILLER_28_221
*880 FILLER_28_233
*881 FILLER_28_245
*882 FILLER_28_251
*883 FILLER_28_253
*884 FILLER_28_265
*885 FILLER_28_27
*886 FILLER_28_277
*887 FILLER_28_289
*888 FILLER_28_297
*889 FILLER_28_3
*890 FILLER_28_32
*891 FILLER_28_36
*892 FILLER_28_42
*893 FILLER_28_51
*894 FILLER_28_63
*895 FILLER_28_68
*896 FILLER_28_78
*897 FILLER_28_85
*898 FILLER_28_93
*899 FILLER_29_111
*900 FILLER_29_113
*901 FILLER_29_121
*902 FILLER_29_133
*903 FILLER_29_145
*904 FILLER_29_157
*905 FILLER_29_165
*906 FILLER_29_169
*907 FILLER_29_18
*908 FILLER_29_181
*909 FILLER_29_193
*910 FILLER_29_205
*911 FILLER_29_217
*912 FILLER_29_223
*913 FILLER_29_225
*914 FILLER_29_237
*915 FILLER_29_249
*916 FILLER_29_261
*917 FILLER_29_27
*918 FILLER_29_273
*919 FILLER_29_279
*920 FILLER_29_281
*921 FILLER_29_293
*922 FILLER_29_35
*923 FILLER_29_44
*924 FILLER_29_57
*925 FILLER_29_69
*926 FILLER_29_7
*927 FILLER_29_81
*928 FILLER_29_99
*929 FILLER_2_109
*930 FILLER_2_129
*931 FILLER_2_137
*932 FILLER_2_141
*933 FILLER_2_153
*934 FILLER_2_165
*935 FILLER_2_177
*936 FILLER_2_189
*937 FILLER_2_195
*938 FILLER_2_197
*939 FILLER_2_209
*940 FILLER_2_21
*941 FILLER_2_221
*942 FILLER_2_233
*943 FILLER_2_245
*944 FILLER_2_251
*945 FILLER_2_253
*946 FILLER_2_265
*947 FILLER_2_27
*948 FILLER_2_277
*949 FILLER_2_289
*950 FILLER_2_29
*951 FILLER_2_297
*952 FILLER_2_3
*953 FILLER_2_38
*954 FILLER_2_58
*955 FILLER_2_78
*956 FILLER_2_85
*957 FILLER_30_107
*958 FILLER_30_119
*959 FILLER_30_131
*960 FILLER_30_139
*961 FILLER_30_141
*962 FILLER_30_15
*963 FILLER_30_153
*964 FILLER_30_165
*965 FILLER_30_177
*966 FILLER_30_189
*967 FILLER_30_195
*968 FILLER_30_197
*969 FILLER_30_209
*970 FILLER_30_221
*971 FILLER_30_233
*972 FILLER_30_24
*973 FILLER_30_245
*974 FILLER_30_251
*975 FILLER_30_253
*976 FILLER_30_265
*977 FILLER_30_277
*978 FILLER_30_289
*979 FILLER_30_29
*980 FILLER_30_297
*981 FILLER_30_3
*982 FILLER_30_38
*983 FILLER_30_53
*984 FILLER_30_65
*985 FILLER_30_77
*986 FILLER_30_83
*987 FILLER_30_85
*988 FILLER_30_96
*989 FILLER_31_11
*990 FILLER_31_111
*991 FILLER_31_113
*992 FILLER_31_125
*993 FILLER_31_137
*994 FILLER_31_149
*995 FILLER_31_16
*996 FILLER_31_161
*997 FILLER_31_167
*998 FILLER_31_169
*999 FILLER_31_181
*1000 FILLER_31_193
*1001 FILLER_31_205
*1002 FILLER_31_217
*1003 FILLER_31_223
*1004 FILLER_31_225
*1005 FILLER_31_237
*1006 FILLER_31_249
*1007 FILLER_31_261
*1008 FILLER_31_273
*1009 FILLER_31_279
*1010 FILLER_31_281
*1011 FILLER_31_293
*1012 FILLER_31_3
*1013 FILLER_31_30
*1014 FILLER_31_47
*1015 FILLER_31_55
*1016 FILLER_31_61
*1017 FILLER_31_69
*1018 FILLER_31_81
*1019 FILLER_31_87
*1020 FILLER_31_99
*1021 FILLER_32_105
*1022 FILLER_32_117
*1023 FILLER_32_129
*1024 FILLER_32_137
*1025 FILLER_32_141
*1026 FILLER_32_153
*1027 FILLER_32_16
*1028 FILLER_32_165
*1029 FILLER_32_177
*1030 FILLER_32_189
*1031 FILLER_32_195
*1032 FILLER_32_197
*1033 FILLER_32_209
*1034 FILLER_32_221
*1035 FILLER_32_233
*1036 FILLER_32_24
*1037 FILLER_32_245
*1038 FILLER_32_251
*1039 FILLER_32_253
*1040 FILLER_32_265
*1041 FILLER_32_277
*1042 FILLER_32_289
*1043 FILLER_32_29
*1044 FILLER_32_297
*1045 FILLER_32_3
*1046 FILLER_32_34
*1047 FILLER_32_42
*1048 FILLER_32_51
*1049 FILLER_32_62
*1050 FILLER_32_70
*1051 FILLER_32_82
*1052 FILLER_32_93
*1053 FILLER_33_108
*1054 FILLER_33_113
*1055 FILLER_33_125
*1056 FILLER_33_137
*1057 FILLER_33_14
*1058 FILLER_33_149
*1059 FILLER_33_161
*1060 FILLER_33_167
*1061 FILLER_33_169
*1062 FILLER_33_181
*1063 FILLER_33_193
*1064 FILLER_33_205
*1065 FILLER_33_217
*1066 FILLER_33_223
*1067 FILLER_33_225
*1068 FILLER_33_237
*1069 FILLER_33_249
*1070 FILLER_33_261
*1071 FILLER_33_273
*1072 FILLER_33_279
*1073 FILLER_33_28
*1074 FILLER_33_281
*1075 FILLER_33_293
*1076 FILLER_33_3
*1077 FILLER_33_46
*1078 FILLER_33_54
*1079 FILLER_33_57
*1080 FILLER_33_61
*1081 FILLER_33_72
*1082 FILLER_33_89
*1083 FILLER_33_96
*1084 FILLER_34_109
*1085 FILLER_34_121
*1086 FILLER_34_133
*1087 FILLER_34_139
*1088 FILLER_34_141
*1089 FILLER_34_153
*1090 FILLER_34_16
*1091 FILLER_34_165
*1092 FILLER_34_177
*1093 FILLER_34_189
*1094 FILLER_34_195
*1095 FILLER_34_197
*1096 FILLER_34_209
*1097 FILLER_34_221
*1098 FILLER_34_233
*1099 FILLER_34_24
*1100 FILLER_34_245
*1101 FILLER_34_251
*1102 FILLER_34_253
*1103 FILLER_34_265
*1104 FILLER_34_277
*1105 FILLER_34_289
*1106 FILLER_34_297
*1107 FILLER_34_3
*1108 FILLER_34_45
*1109 FILLER_34_53
*1110 FILLER_34_59
*1111 FILLER_34_67
*1112 FILLER_34_78
*1113 FILLER_34_85
*1114 FILLER_34_97
*1115 FILLER_35_104
*1116 FILLER_35_11
*1117 FILLER_35_113
*1118 FILLER_35_125
*1119 FILLER_35_137
*1120 FILLER_35_149
*1121 FILLER_35_161
*1122 FILLER_35_167
*1123 FILLER_35_169
*1124 FILLER_35_17
*1125 FILLER_35_181
*1126 FILLER_35_193
*1127 FILLER_35_205
*1128 FILLER_35_217
*1129 FILLER_35_223
*1130 FILLER_35_225
*1131 FILLER_35_237
*1132 FILLER_35_249
*1133 FILLER_35_261
*1134 FILLER_35_273
*1135 FILLER_35_279
*1136 FILLER_35_281
*1137 FILLER_35_29
*1138 FILLER_35_293
*1139 FILLER_35_3
*1140 FILLER_35_41
*1141 FILLER_35_53
*1142 FILLER_35_57
*1143 FILLER_35_65
*1144 FILLER_35_80
*1145 FILLER_35_92
*1146 FILLER_36_109
*1147 FILLER_36_116
*1148 FILLER_36_128
*1149 FILLER_36_141
*1150 FILLER_36_153
*1151 FILLER_36_165
*1152 FILLER_36_177
*1153 FILLER_36_189
*1154 FILLER_36_195
*1155 FILLER_36_197
*1156 FILLER_36_209
*1157 FILLER_36_21
*1158 FILLER_36_221
*1159 FILLER_36_233
*1160 FILLER_36_245
*1161 FILLER_36_251
*1162 FILLER_36_253
*1163 FILLER_36_265
*1164 FILLER_36_27
*1165 FILLER_36_277
*1166 FILLER_36_289
*1167 FILLER_36_29
*1168 FILLER_36_297
*1169 FILLER_36_3
*1170 FILLER_36_41
*1171 FILLER_36_53
*1172 FILLER_36_65
*1173 FILLER_36_77
*1174 FILLER_36_83
*1175 FILLER_36_85
*1176 FILLER_36_97
*1177 FILLER_37_105
*1178 FILLER_37_111
*1179 FILLER_37_113
*1180 FILLER_37_125
*1181 FILLER_37_137
*1182 FILLER_37_149
*1183 FILLER_37_15
*1184 FILLER_37_161
*1185 FILLER_37_167
*1186 FILLER_37_169
*1187 FILLER_37_181
*1188 FILLER_37_193
*1189 FILLER_37_205
*1190 FILLER_37_217
*1191 FILLER_37_223
*1192 FILLER_37_225
*1193 FILLER_37_237
*1194 FILLER_37_249
*1195 FILLER_37_261
*1196 FILLER_37_27
*1197 FILLER_37_273
*1198 FILLER_37_279
*1199 FILLER_37_281
*1200 FILLER_37_293
*1201 FILLER_37_3
*1202 FILLER_37_39
*1203 FILLER_37_51
*1204 FILLER_37_55
*1205 FILLER_37_57
*1206 FILLER_37_69
*1207 FILLER_37_81
*1208 FILLER_37_93
*1209 FILLER_38_109
*1210 FILLER_38_121
*1211 FILLER_38_133
*1212 FILLER_38_139
*1213 FILLER_38_141
*1214 FILLER_38_15
*1215 FILLER_38_153
*1216 FILLER_38_165
*1217 FILLER_38_177
*1218 FILLER_38_189
*1219 FILLER_38_195
*1220 FILLER_38_197
*1221 FILLER_38_209
*1222 FILLER_38_221
*1223 FILLER_38_233
*1224 FILLER_38_245
*1225 FILLER_38_251
*1226 FILLER_38_253
*1227 FILLER_38_265
*1228 FILLER_38_27
*1229 FILLER_38_277
*1230 FILLER_38_289
*1231 FILLER_38_29
*1232 FILLER_38_297
*1233 FILLER_38_3
*1234 FILLER_38_41
*1235 FILLER_38_53
*1236 FILLER_38_65
*1237 FILLER_38_77
*1238 FILLER_38_83
*1239 FILLER_38_85
*1240 FILLER_38_97
*1241 FILLER_39_105
*1242 FILLER_39_111
*1243 FILLER_39_113
*1244 FILLER_39_125
*1245 FILLER_39_137
*1246 FILLER_39_149
*1247 FILLER_39_161
*1248 FILLER_39_167
*1249 FILLER_39_169
*1250 FILLER_39_181
*1251 FILLER_39_19
*1252 FILLER_39_193
*1253 FILLER_39_205
*1254 FILLER_39_217
*1255 FILLER_39_223
*1256 FILLER_39_225
*1257 FILLER_39_237
*1258 FILLER_39_249
*1259 FILLER_39_261
*1260 FILLER_39_273
*1261 FILLER_39_279
*1262 FILLER_39_281
*1263 FILLER_39_293
*1264 FILLER_39_3
*1265 FILLER_39_31
*1266 FILLER_39_43
*1267 FILLER_39_55
*1268 FILLER_39_57
*1269 FILLER_39_69
*1270 FILLER_39_81
*1271 FILLER_39_93
*1272 FILLER_3_110
*1273 FILLER_3_121
*1274 FILLER_3_133
*1275 FILLER_3_140
*1276 FILLER_3_152
*1277 FILLER_3_164
*1278 FILLER_3_169
*1279 FILLER_3_181
*1280 FILLER_3_193
*1281 FILLER_3_205
*1282 FILLER_3_217
*1283 FILLER_3_223
*1284 FILLER_3_225
*1285 FILLER_3_237
*1286 FILLER_3_249
*1287 FILLER_3_25
*1288 FILLER_3_261
*1289 FILLER_3_273
*1290 FILLER_3_279
*1291 FILLER_3_281
*1292 FILLER_3_293
*1293 FILLER_3_3
*1294 FILLER_3_45
*1295 FILLER_3_52
*1296 FILLER_3_57
*1297 FILLER_3_61
*1298 FILLER_3_78
*1299 FILLER_3_98
*1300 FILLER_40_109
*1301 FILLER_40_121
*1302 FILLER_40_133
*1303 FILLER_40_139
*1304 FILLER_40_141
*1305 FILLER_40_15
*1306 FILLER_40_153
*1307 FILLER_40_165
*1308 FILLER_40_177
*1309 FILLER_40_189
*1310 FILLER_40_19
*1311 FILLER_40_195
*1312 FILLER_40_197
*1313 FILLER_40_209
*1314 FILLER_40_221
*1315 FILLER_40_23
*1316 FILLER_40_233
*1317 FILLER_40_245
*1318 FILLER_40_251
*1319 FILLER_40_253
*1320 FILLER_40_265
*1321 FILLER_40_27
*1322 FILLER_40_277
*1323 FILLER_40_289
*1324 FILLER_40_29
*1325 FILLER_40_297
*1326 FILLER_40_3
*1327 FILLER_40_41
*1328 FILLER_40_53
*1329 FILLER_40_65
*1330 FILLER_40_77
*1331 FILLER_40_83
*1332 FILLER_40_85
*1333 FILLER_40_97
*1334 FILLER_41_105
*1335 FILLER_41_11
*1336 FILLER_41_111
*1337 FILLER_41_113
*1338 FILLER_41_125
*1339 FILLER_41_137
*1340 FILLER_41_149
*1341 FILLER_41_161
*1342 FILLER_41_167
*1343 FILLER_41_169
*1344 FILLER_41_18
*1345 FILLER_41_181
*1346 FILLER_41_193
*1347 FILLER_41_205
*1348 FILLER_41_217
*1349 FILLER_41_223
*1350 FILLER_41_225
*1351 FILLER_41_237
*1352 FILLER_41_249
*1353 FILLER_41_26
*1354 FILLER_41_261
*1355 FILLER_41_273
*1356 FILLER_41_279
*1357 FILLER_41_281
*1358 FILLER_41_293
*1359 FILLER_41_3
*1360 FILLER_41_38
*1361 FILLER_41_50
*1362 FILLER_41_57
*1363 FILLER_41_69
*1364 FILLER_41_81
*1365 FILLER_41_93
*1366 FILLER_42_109
*1367 FILLER_42_121
*1368 FILLER_42_133
*1369 FILLER_42_139
*1370 FILLER_42_141
*1371 FILLER_42_15
*1372 FILLER_42_153
*1373 FILLER_42_165
*1374 FILLER_42_177
*1375 FILLER_42_189
*1376 FILLER_42_195
*1377 FILLER_42_197
*1378 FILLER_42_209
*1379 FILLER_42_221
*1380 FILLER_42_233
*1381 FILLER_42_245
*1382 FILLER_42_251
*1383 FILLER_42_253
*1384 FILLER_42_265
*1385 FILLER_42_27
*1386 FILLER_42_277
*1387 FILLER_42_289
*1388 FILLER_42_29
*1389 FILLER_42_297
*1390 FILLER_42_3
*1391 FILLER_42_41
*1392 FILLER_42_53
*1393 FILLER_42_65
*1394 FILLER_42_77
*1395 FILLER_42_83
*1396 FILLER_42_85
*1397 FILLER_42_97
*1398 FILLER_43_105
*1399 FILLER_43_111
*1400 FILLER_43_113
*1401 FILLER_43_125
*1402 FILLER_43_137
*1403 FILLER_43_149
*1404 FILLER_43_15
*1405 FILLER_43_161
*1406 FILLER_43_167
*1407 FILLER_43_169
*1408 FILLER_43_181
*1409 FILLER_43_193
*1410 FILLER_43_205
*1411 FILLER_43_217
*1412 FILLER_43_223
*1413 FILLER_43_225
*1414 FILLER_43_237
*1415 FILLER_43_249
*1416 FILLER_43_261
*1417 FILLER_43_27
*1418 FILLER_43_273
*1419 FILLER_43_279
*1420 FILLER_43_281
*1421 FILLER_43_293
*1422 FILLER_43_3
*1423 FILLER_43_39
*1424 FILLER_43_51
*1425 FILLER_43_55
*1426 FILLER_43_57
*1427 FILLER_43_69
*1428 FILLER_43_81
*1429 FILLER_43_93
*1430 FILLER_44_109
*1431 FILLER_44_121
*1432 FILLER_44_133
*1433 FILLER_44_139
*1434 FILLER_44_141
*1435 FILLER_44_15
*1436 FILLER_44_153
*1437 FILLER_44_165
*1438 FILLER_44_177
*1439 FILLER_44_189
*1440 FILLER_44_195
*1441 FILLER_44_197
*1442 FILLER_44_209
*1443 FILLER_44_221
*1444 FILLER_44_233
*1445 FILLER_44_245
*1446 FILLER_44_251
*1447 FILLER_44_253
*1448 FILLER_44_265
*1449 FILLER_44_27
*1450 FILLER_44_277
*1451 FILLER_44_289
*1452 FILLER_44_29
*1453 FILLER_44_297
*1454 FILLER_44_3
*1455 FILLER_44_41
*1456 FILLER_44_53
*1457 FILLER_44_65
*1458 FILLER_44_77
*1459 FILLER_44_83
*1460 FILLER_44_85
*1461 FILLER_44_97
*1462 FILLER_45_105
*1463 FILLER_45_111
*1464 FILLER_45_113
*1465 FILLER_45_125
*1466 FILLER_45_137
*1467 FILLER_45_149
*1468 FILLER_45_15
*1469 FILLER_45_161
*1470 FILLER_45_167
*1471 FILLER_45_169
*1472 FILLER_45_181
*1473 FILLER_45_193
*1474 FILLER_45_205
*1475 FILLER_45_217
*1476 FILLER_45_223
*1477 FILLER_45_225
*1478 FILLER_45_237
*1479 FILLER_45_249
*1480 FILLER_45_261
*1481 FILLER_45_27
*1482 FILLER_45_273
*1483 FILLER_45_279
*1484 FILLER_45_281
*1485 FILLER_45_293
*1486 FILLER_45_3
*1487 FILLER_45_39
*1488 FILLER_45_51
*1489 FILLER_45_55
*1490 FILLER_45_57
*1491 FILLER_45_69
*1492 FILLER_45_81
*1493 FILLER_45_93
*1494 FILLER_46_109
*1495 FILLER_46_121
*1496 FILLER_46_133
*1497 FILLER_46_139
*1498 FILLER_46_141
*1499 FILLER_46_15
*1500 FILLER_46_153
*1501 FILLER_46_165
*1502 FILLER_46_177
*1503 FILLER_46_189
*1504 FILLER_46_195
*1505 FILLER_46_197
*1506 FILLER_46_209
*1507 FILLER_46_221
*1508 FILLER_46_233
*1509 FILLER_46_245
*1510 FILLER_46_251
*1511 FILLER_46_253
*1512 FILLER_46_265
*1513 FILLER_46_27
*1514 FILLER_46_277
*1515 FILLER_46_289
*1516 FILLER_46_29
*1517 FILLER_46_297
*1518 FILLER_46_3
*1519 FILLER_46_41
*1520 FILLER_46_53
*1521 FILLER_46_65
*1522 FILLER_46_77
*1523 FILLER_46_83
*1524 FILLER_46_85
*1525 FILLER_46_97
*1526 FILLER_47_105
*1527 FILLER_47_111
*1528 FILLER_47_113
*1529 FILLER_47_125
*1530 FILLER_47_137
*1531 FILLER_47_149
*1532 FILLER_47_15
*1533 FILLER_47_161
*1534 FILLER_47_167
*1535 FILLER_47_169
*1536 FILLER_47_181
*1537 FILLER_47_193
*1538 FILLER_47_205
*1539 FILLER_47_217
*1540 FILLER_47_223
*1541 FILLER_47_225
*1542 FILLER_47_237
*1543 FILLER_47_249
*1544 FILLER_47_261
*1545 FILLER_47_27
*1546 FILLER_47_273
*1547 FILLER_47_279
*1548 FILLER_47_281
*1549 FILLER_47_293
*1550 FILLER_47_3
*1551 FILLER_47_39
*1552 FILLER_47_51
*1553 FILLER_47_55
*1554 FILLER_47_57
*1555 FILLER_47_69
*1556 FILLER_47_81
*1557 FILLER_47_93
*1558 FILLER_48_109
*1559 FILLER_48_121
*1560 FILLER_48_133
*1561 FILLER_48_139
*1562 FILLER_48_141
*1563 FILLER_48_15
*1564 FILLER_48_153
*1565 FILLER_48_165
*1566 FILLER_48_177
*1567 FILLER_48_189
*1568 FILLER_48_195
*1569 FILLER_48_197
*1570 FILLER_48_209
*1571 FILLER_48_221
*1572 FILLER_48_233
*1573 FILLER_48_245
*1574 FILLER_48_251
*1575 FILLER_48_253
*1576 FILLER_48_265
*1577 FILLER_48_27
*1578 FILLER_48_277
*1579 FILLER_48_289
*1580 FILLER_48_29
*1581 FILLER_48_297
*1582 FILLER_48_3
*1583 FILLER_48_41
*1584 FILLER_48_53
*1585 FILLER_48_65
*1586 FILLER_48_77
*1587 FILLER_48_83
*1588 FILLER_48_85
*1589 FILLER_48_97
*1590 FILLER_49_105
*1591 FILLER_49_111
*1592 FILLER_49_113
*1593 FILLER_49_125
*1594 FILLER_49_137
*1595 FILLER_49_149
*1596 FILLER_49_15
*1597 FILLER_49_161
*1598 FILLER_49_167
*1599 FILLER_49_169
*1600 FILLER_49_181
*1601 FILLER_49_193
*1602 FILLER_49_205
*1603 FILLER_49_217
*1604 FILLER_49_223
*1605 FILLER_49_225
*1606 FILLER_49_237
*1607 FILLER_49_249
*1608 FILLER_49_261
*1609 FILLER_49_27
*1610 FILLER_49_273
*1611 FILLER_49_279
*1612 FILLER_49_281
*1613 FILLER_49_293
*1614 FILLER_49_3
*1615 FILLER_49_39
*1616 FILLER_49_51
*1617 FILLER_49_55
*1618 FILLER_49_57
*1619 FILLER_49_69
*1620 FILLER_49_81
*1621 FILLER_49_93
*1622 FILLER_4_101
*1623 FILLER_4_113
*1624 FILLER_4_125
*1625 FILLER_4_135
*1626 FILLER_4_139
*1627 FILLER_4_141
*1628 FILLER_4_153
*1629 FILLER_4_165
*1630 FILLER_4_177
*1631 FILLER_4_189
*1632 FILLER_4_195
*1633 FILLER_4_197
*1634 FILLER_4_209
*1635 FILLER_4_21
*1636 FILLER_4_221