*SPEF "ieee 1481-1999"
*DESIGN "user_module_348121131386929746"
*DATE "11:11:11 Fri 11 11, 1111"
*VENDOR "OpenRCX"
*PROGRAM "Parallel Extraction"
*VERSION "1.0"
*DESIGN_FLOW "NAME_SCOPE LOCAL" "PIN_CAP NONE"
*DIVIDER /
*DELIMITER :
*BUS_DELIMITER []
*T_UNIT 1 NS
*C_UNIT 1 PF
*R_UNIT 1 OHM
*L_UNIT 1 HENRY

*NAME_MAP
*1 io_in[0]
*2 io_in[1]
*3 io_in[2]
*4 io_in[3]
*5 io_in[4]
*6 io_in[5]
*7 io_in[6]
*8 io_in[7]
*9 io_out[0]
*10 io_out[1]
*11 io_out[2]
*12 io_out[3]
*13 io_out[4]
*14 io_out[5]
*15 net3
*16 io_out[7]
*19 _00_
*20 _01_
*21 _02_
*22 _03_
*23 _04_
*24 _05_
*25 _06_
*26 _07_
*27 _08_
*28 _09_
*29 _10_
*30 _11_
*31 _12_
*32 _13_
*33 _14_
*34 _15_
*35 _16_
*36 _17_
*37 _18_
*38 _19_
*39 _20_
*40 _21_
*41 _22_
*42 _23_
*43 clknet_0_flop3\.clk
*44 clknet_0_io_in[0]
*45 clknet_1_0__leaf_flop3\.clk
*46 clknet_1_0__leaf_io_in[0]
*47 clknet_1_1__leaf_flop3\.clk
*48 clknet_1_1__leaf_io_in[0]
*49 flop10\.clk
*50 flop10\.d
*51 flop10\.q
*52 flop11\.d
*53 flop11\.q
*54 flop12\.d
*55 flop12\.q
*56 flop13\.d
*57 flop13\.q
*58 flop14\.d
*59 flop14\.q
*60 flop15\.d
*61 flop15\.q
*62 flop16\.d
*63 flop16\.q
*64 flop17\.d
*65 flop17\.q
*66 flop18\.d
*67 flop18\.q
*68 flop2\.d
*69 flop2\.q
*70 flop3\.clk
*71 flop3\.q
*72 flop4\.q
*73 flop5\.q
*74 flop6\.q
*75 flop7\.q
*76 flop8\.q
*77 flop9\.q
*78 net1
*79 net2
*80 FILLER_0_109
*81 FILLER_0_113
*82 FILLER_0_125
*83 FILLER_0_137
*84 FILLER_0_141
*85 FILLER_0_153
*86 FILLER_0_165
*87 FILLER_0_169
*88 FILLER_0_18
*89 FILLER_0_181
*90 FILLER_0_193
*91 FILLER_0_197
*92 FILLER_0_209
*93 FILLER_0_221
*94 FILLER_0_225
*95 FILLER_0_237
*96 FILLER_0_249
*97 FILLER_0_253
*98 FILLER_0_26
*99 FILLER_0_265
*100 FILLER_0_277
*101 FILLER_0_281
*102 FILLER_0_29
*103 FILLER_0_293
*104 FILLER_0_41
*105 FILLER_0_53
*106 FILLER_0_57
*107 FILLER_0_6
*108 FILLER_0_69
*109 FILLER_0_81
*110 FILLER_0_85
*111 FILLER_0_97
*112 FILLER_10_109
*113 FILLER_10_121
*114 FILLER_10_133
*115 FILLER_10_139
*116 FILLER_10_141
*117 FILLER_10_153
*118 FILLER_10_16
*119 FILLER_10_165
*120 FILLER_10_177
*121 FILLER_10_189
*122 FILLER_10_195
*123 FILLER_10_197
*124 FILLER_10_209
*125 FILLER_10_221
*126 FILLER_10_233
*127 FILLER_10_24
*128 FILLER_10_245
*129 FILLER_10_251
*130 FILLER_10_253
*131 FILLER_10_265
*132 FILLER_10_277
*133 FILLER_10_289
*134 FILLER_10_29
*135 FILLER_10_297
*136 FILLER_10_3
*137 FILLER_10_35
*138 FILLER_10_43
*139 FILLER_10_51
*140 FILLER_10_63
*141 FILLER_10_75
*142 FILLER_10_8
*143 FILLER_10_83
*144 FILLER_10_85
*145 FILLER_10_97
*146 FILLER_11_105
*147 FILLER_11_111
*148 FILLER_11_113
*149 FILLER_11_125
*150 FILLER_11_137
*151 FILLER_11_149
*152 FILLER_11_161
*153 FILLER_11_167
*154 FILLER_11_169
*155 FILLER_11_18
*156 FILLER_11_181
*157 FILLER_11_193
*158 FILLER_11_205
*159 FILLER_11_217
*160 FILLER_11_223
*161 FILLER_11_225
*162 FILLER_11_237
*163 FILLER_11_249
*164 FILLER_11_26
*165 FILLER_11_261
*166 FILLER_11_273
*167 FILLER_11_279
*168 FILLER_11_281
*169 FILLER_11_293
*170 FILLER_11_38
*171 FILLER_11_50
*172 FILLER_11_57
*173 FILLER_11_6
*174 FILLER_11_69
*175 FILLER_11_81
*176 FILLER_11_93
*177 FILLER_12_109
*178 FILLER_12_121
*179 FILLER_12_133
*180 FILLER_12_139
*181 FILLER_12_141
*182 FILLER_12_15
*183 FILLER_12_153
*184 FILLER_12_165
*185 FILLER_12_177
*186 FILLER_12_189
*187 FILLER_12_195
*188 FILLER_12_197
*189 FILLER_12_209
*190 FILLER_12_221
*191 FILLER_12_233
*192 FILLER_12_245
*193 FILLER_12_251
*194 FILLER_12_253
*195 FILLER_12_265
*196 FILLER_12_27
*197 FILLER_12_277
*198 FILLER_12_289
*199 FILLER_12_29
*200 FILLER_12_297
*201 FILLER_12_3
*202 FILLER_12_41
*203 FILLER_12_53
*204 FILLER_12_65
*205 FILLER_12_77
*206 FILLER_12_83
*207 FILLER_12_85
*208 FILLER_12_97
*209 FILLER_13_105
*210 FILLER_13_111
*211 FILLER_13_113
*212 FILLER_13_125
*213 FILLER_13_137
*214 FILLER_13_149
*215 FILLER_13_15
*216 FILLER_13_161
*217 FILLER_13_167
*218 FILLER_13_169
*219 FILLER_13_181
*220 FILLER_13_193
*221 FILLER_13_205
*222 FILLER_13_217
*223 FILLER_13_223
*224 FILLER_13_225
*225 FILLER_13_237
*226 FILLER_13_249
*227 FILLER_13_261
*228 FILLER_13_27
*229 FILLER_13_273
*230 FILLER_13_279
*231 FILLER_13_281
*232 FILLER_13_293
*233 FILLER_13_3
*234 FILLER_13_39
*235 FILLER_13_51
*236 FILLER_13_55
*237 FILLER_13_57
*238 FILLER_13_69
*239 FILLER_13_81
*240 FILLER_13_93
*241 FILLER_14_109
*242 FILLER_14_121
*243 FILLER_14_133
*244 FILLER_14_139
*245 FILLER_14_141
*246 FILLER_14_15
*247 FILLER_14_153
*248 FILLER_14_165
*249 FILLER_14_177
*250 FILLER_14_189
*251 FILLER_14_195
*252 FILLER_14_197
*253 FILLER_14_209
*254 FILLER_14_221
*255 FILLER_14_233
*256 FILLER_14_245
*257 FILLER_14_251
*258 FILLER_14_253
*259 FILLER_14_265
*260 FILLER_14_27
*261 FILLER_14_277
*262 FILLER_14_289
*263 FILLER_14_29
*264 FILLER_14_297
*265 FILLER_14_3
*266 FILLER_14_41
*267 FILLER_14_53
*268 FILLER_14_65
*269 FILLER_14_77
*270 FILLER_14_83
*271 FILLER_14_85
*272 FILLER_14_97
*273 FILLER_15_105
*274 FILLER_15_111
*275 FILLER_15_113
*276 FILLER_15_125
*277 FILLER_15_137
*278 FILLER_15_149
*279 FILLER_15_15
*280 FILLER_15_161
*281 FILLER_15_167
*282 FILLER_15_169
*283 FILLER_15_181
*284 FILLER_15_193
*285 FILLER_15_205
*286 FILLER_15_217
*287 FILLER_15_223
*288 FILLER_15_225
*289 FILLER_15_237
*290 FILLER_15_249
*291 FILLER_15_261
*292 FILLER_15_27
*293 FILLER_15_273
*294 FILLER_15_279
*295 FILLER_15_281
*296 FILLER_15_293
*297 FILLER_15_3
*298 FILLER_15_39
*299 FILLER_15_51
*300 FILLER_15_55
*301 FILLER_15_57
*302 FILLER_15_69
*303 FILLER_15_81
*304 FILLER_15_93
*305 FILLER_16_109
*306 FILLER_16_121
*307 FILLER_16_133
*308 FILLER_16_139
*309 FILLER_16_141
*310 FILLER_16_15
*311 FILLER_16_153
*312 FILLER_16_165
*313 FILLER_16_177
*314 FILLER_16_189
*315 FILLER_16_195
*316 FILLER_16_197
*317 FILLER_16_209
*318 FILLER_16_221
*319 FILLER_16_233
*320 FILLER_16_245
*321 FILLER_16_251
*322 FILLER_16_253
*323 FILLER_16_265
*324 FILLER_16_27
*325 FILLER_16_277
*326 FILLER_16_289
*327 FILLER_16_29
*328 FILLER_16_297
*329 FILLER_16_3
*330 FILLER_16_41
*331 FILLER_16_53
*332 FILLER_16_65
*333 FILLER_16_77
*334 FILLER_16_83
*335 FILLER_16_85
*336 FILLER_16_97
*337 FILLER_17_105
*338 FILLER_17_111
*339 FILLER_17_113
*340 FILLER_17_125
*341 FILLER_17_137
*342 FILLER_17_149
*343 FILLER_17_15
*344 FILLER_17_161
*345 FILLER_17_167
*346 FILLER_17_169
*347 FILLER_17_181
*348 FILLER_17_193
*349 FILLER_17_205
*350 FILLER_17_217
*351 FILLER_17_223
*352 FILLER_17_225
*353 FILLER_17_237
*354 FILLER_17_249
*355 FILLER_17_261
*356 FILLER_17_27
*357 FILLER_17_273
*358 FILLER_17_279
*359 FILLER_17_281
*360 FILLER_17_293
*361 FILLER_17_3
*362 FILLER_17_39
*363 FILLER_17_51
*364 FILLER_17_55
*365 FILLER_17_57
*366 FILLER_17_69
*367 FILLER_17_81
*368 FILLER_17_93
*369 FILLER_18_109
*370 FILLER_18_121
*371 FILLER_18_133
*372 FILLER_18_139
*373 FILLER_18_141
*374 FILLER_18_15
*375 FILLER_18_153
*376 FILLER_18_165
*377 FILLER_18_177
*378 FILLER_18_189
*379 FILLER_18_195
*380 FILLER_18_197
*381 FILLER_18_209
*382 FILLER_18_221
*383 FILLER_18_233
*384 FILLER_18_245
*385 FILLER_18_251
*386 FILLER_18_253
*387 FILLER_18_265
*388 FILLER_18_27
*389 FILLER_18_277
*390 FILLER_18_289
*391 FILLER_18_29
*392 FILLER_18_297
*393 FILLER_18_3
*394 FILLER_18_41
*395 FILLER_18_53
*396 FILLER_18_65
*397 FILLER_18_77
*398 FILLER_18_83
*399 FILLER_18_85
*400 FILLER_18_97
*401 FILLER_19_105
*402 FILLER_19_111
*403 FILLER_19_113
*404 FILLER_19_125
*405 FILLER_19_137
*406 FILLER_19_149
*407 FILLER_19_15
*408 FILLER_19_161
*409 FILLER_19_167
*410 FILLER_19_169
*411 FILLER_19_181
*412 FILLER_19_193
*413 FILLER_19_205
*414 FILLER_19_217
*415 FILLER_19_223
*416 FILLER_19_225
*417 FILLER_19_237
*418 FILLER_19_249
*419 FILLER_19_261
*420 FILLER_19_27
*421 FILLER_19_273
*422 FILLER_19_279
*423 FILLER_19_281
*424 FILLER_19_293
*425 FILLER_19_3
*426 FILLER_19_39
*427 FILLER_19_51
*428 FILLER_19_55
*429 FILLER_19_57
*430 FILLER_19_69
*431 FILLER_19_81
*432 FILLER_19_93
*433 FILLER_1_10
*434 FILLER_1_105
*435 FILLER_1_111
*436 FILLER_1_113
*437 FILLER_1_125
*438 FILLER_1_137
*439 FILLER_1_149
*440 FILLER_1_161
*441 FILLER_1_167
*442 FILLER_1_169
*443 FILLER_1_181
*444 FILLER_1_193
*445 FILLER_1_205
*446 FILLER_1_217
*447 FILLER_1_22
*448 FILLER_1_223
*449 FILLER_1_225
*450 FILLER_1_237
*451 FILLER_1_249
*452 FILLER_1_261
*453 FILLER_1_273
*454 FILLER_1_279
*455 FILLER_1_281
*456 FILLER_1_293
*457 FILLER_1_3
*458 FILLER_1_34
*459 FILLER_1_46
*460 FILLER_1_54
*461 FILLER_1_57
*462 FILLER_1_69
*463 FILLER_1_81
*464 FILLER_1_93
*465 FILLER_20_109
*466 FILLER_20_121
*467 FILLER_20_133
*468 FILLER_20_139
*469 FILLER_20_141
*470 FILLER_20_15
*471 FILLER_20_153
*472 FILLER_20_165
*473 FILLER_20_177
*474 FILLER_20_189
*475 FILLER_20_195
*476 FILLER_20_197
*477 FILLER_20_209
*478 FILLER_20_221
*479 FILLER_20_233
*480 FILLER_20_245
*481 FILLER_20_251
*482 FILLER_20_253
*483 FILLER_20_265
*484 FILLER_20_27
*485 FILLER_20_277
*486 FILLER_20_289
*487 FILLER_20_29
*488 FILLER_20_297
*489 FILLER_20_3
*490 FILLER_20_41
*491 FILLER_20_53
*492 FILLER_20_65
*493 FILLER_20_77
*494 FILLER_20_83
*495 FILLER_20_85
*496 FILLER_20_97
*497 FILLER_21_105
*498 FILLER_21_111
*499 FILLER_21_113
*500 FILLER_21_125
*501 FILLER_21_137
*502 FILLER_21_149
*503 FILLER_21_15
*504 FILLER_21_161
*505 FILLER_21_167
*506 FILLER_21_169
*507 FILLER_21_181
*508 FILLER_21_193
*509 FILLER_21_205
*510 FILLER_21_217
*511 FILLER_21_223
*512 FILLER_21_225
*513 FILLER_21_237
*514 FILLER_21_249
*515 FILLER_21_261
*516 FILLER_21_27
*517 FILLER_21_273
*518 FILLER_21_279
*519 FILLER_21_281
*520 FILLER_21_293
*521 FILLER_21_3
*522 FILLER_21_39
*523 FILLER_21_51
*524 FILLER_21_55
*525 FILLER_21_57
*526 FILLER_21_69
*527 FILLER_21_81
*528 FILLER_21_93
*529 FILLER_22_109
*530 FILLER_22_121
*531 FILLER_22_133
*532 FILLER_22_139
*533 FILLER_22_141
*534 FILLER_22_15
*535 FILLER_22_153
*536 FILLER_22_165
*537 FILLER_22_177
*538 FILLER_22_189
*539 FILLER_22_195
*540 FILLER_22_197
*541 FILLER_22_209
*542 FILLER_22_221
*543 FILLER_22_233
*544 FILLER_22_245
*545 FILLER_22_251
*546 FILLER_22_253
*547 FILLER_22_265
*548 FILLER_22_27
*549 FILLER_22_277
*550 FILLER_22_289
*551 FILLER_22_29
*552 FILLER_22_297
*553 FILLER_22_3
*554 FILLER_22_41
*555 FILLER_22_53
*556 FILLER_22_65
*557 FILLER_22_77
*558 FILLER_22_83
*559 FILLER_22_85
*560 FILLER_22_97
*561 FILLER_23_105
*562 FILLER_23_111
*563 FILLER_23_113
*564 FILLER_23_125
*565 FILLER_23_137
*566 FILLER_23_149
*567 FILLER_23_15
*568 FILLER_23_161
*569 FILLER_23_167
*570 FILLER_23_169
*571 FILLER_23_181
*572 FILLER_23_193
*573 FILLER_23_205
*574 FILLER_23_217
*575 FILLER_23_223
*576 FILLER_23_225
*577 FILLER_23_237
*578 FILLER_23_249
*579 FILLER_23_261
*580 FILLER_23_27
*581 FILLER_23_273
*582 FILLER_23_279
*583 FILLER_23_281
*584 FILLER_23_293
*585 FILLER_23_3
*586 FILLER_23_39
*587 FILLER_23_51
*588 FILLER_23_55
*589 FILLER_23_57
*590 FILLER_23_69
*591 FILLER_23_81
*592 FILLER_23_93
*593 FILLER_24_109
*594 FILLER_24_121
*595 FILLER_24_133
*596 FILLER_24_139
*597 FILLER_24_141
*598 FILLER_24_15
*599 FILLER_24_153
*600 FILLER_24_165
*601 FILLER_24_177
*602 FILLER_24_189
*603 FILLER_24_195
*604 FILLER_24_197
*605 FILLER_24_209
*606 FILLER_24_221
*607 FILLER_24_233
*608 FILLER_24_245
*609 FILLER_24_251
*610 FILLER_24_253
*611 FILLER_24_265
*612 FILLER_24_27
*613 FILLER_24_277
*614 FILLER_24_289
*615 FILLER_24_29
*616 FILLER_24_297
*617 FILLER_24_3
*618 FILLER_24_41
*619 FILLER_24_53
*620 FILLER_24_65
*621 FILLER_24_77
*622 FILLER_24_83
*623 FILLER_24_85
*624 FILLER_24_97
*625 FILLER_25_105
*626 FILLER_25_111
*627 FILLER_25_113
*628 FILLER_25_125
*629 FILLER_25_137
*630 FILLER_25_149
*631 FILLER_25_15
*632 FILLER_25_161
*633 FILLER_25_167
*634 FILLER_25_169
*635 FILLER_25_181
*636 FILLER_25_193
*637 FILLER_25_205
*638 FILLER_25_217
*639 FILLER_25_223
*640 FILLER_25_225
*641 FILLER_25_237
*642 FILLER_25_249
*643 FILLER_25_261
*644 FILLER_25_27
*645 FILLER_25_273
*646 FILLER_25_279
*647 FILLER_25_281
*648 FILLER_25_293
*649 FILLER_25_3
*650 FILLER_25_39
*651 FILLER_25_51
*652 FILLER_25_55
*653 FILLER_25_57
*654 FILLER_25_69
*655 FILLER_25_81
*656 FILLER_25_93
*657 FILLER_26_109
*658 FILLER_26_121
*659 FILLER_26_133
*660 FILLER_26_139
*661 FILLER_26_141
*662 FILLER_26_15
*663 FILLER_26_153
*664 FILLER_26_165
*665 FILLER_26_177
*666 FILLER_26_189
*667 FILLER_26_195
*668 FILLER_26_197
*669 FILLER_26_209
*670 FILLER_26_221
*671 FILLER_26_233
*672 FILLER_26_245
*673 FILLER_26_251
*674 FILLER_26_253
*675 FILLER_26_265
*676 FILLER_26_27
*677 FILLER_26_277
*678 FILLER_26_289
*679 FILLER_26_29
*680 FILLER_26_297
*681 FILLER_26_3
*682 FILLER_26_41
*683 FILLER_26_53
*684 FILLER_26_65
*685 FILLER_26_77
*686 FILLER_26_83
*687 FILLER_26_85
*688 FILLER_26_97
*689 FILLER_27_105
*690 FILLER_27_111
*691 FILLER_27_113
*692 FILLER_27_125
*693 FILLER_27_137
*694 FILLER_27_149
*695 FILLER_27_15
*696 FILLER_27_161
*697 FILLER_27_167
*698 FILLER_27_169
*699 FILLER_27_181
*700 FILLER_27_193
*701 FILLER_27_205
*702 FILLER_27_217
*703 FILLER_27_223
*704 FILLER_27_225
*705 FILLER_27_237
*706 FILLER_27_249
*707 FILLER_27_261
*708 FILLER_27_27
*709 FILLER_27_273
*710 FILLER_27_279
*711 FILLER_27_281
*712 FILLER_27_293
*713 FILLER_27_3
*714 FILLER_27_39
*715 FILLER_27_51
*716 FILLER_27_55
*717 FILLER_27_57
*718 FILLER_27_69
*719 FILLER_27_81
*720 FILLER_27_93
*721 FILLER_28_109
*722 FILLER_28_121
*723 FILLER_28_133
*724 FILLER_28_139
*725 FILLER_28_141
*726 FILLER_28_15
*727 FILLER_28_153
*728 FILLER_28_165
*729 FILLER_28_177
*730 FILLER_28_189
*731 FILLER_28_195
*732 FILLER_28_197
*733 FILLER_28_209
*734 FILLER_28_221
*735 FILLER_28_233
*736 FILLER_28_245
*737 FILLER_28_251
*738 FILLER_28_253
*739 FILLER_28_265
*740 FILLER_28_27
*741 FILLER_28_277
*742 FILLER_28_289
*743 FILLER_28_29
*744 FILLER_28_297
*745 FILLER_28_3
*746 FILLER_28_41
*747 FILLER_28_53
*748 FILLER_28_65
*749 FILLER_28_77
*750 FILLER_28_83
*751 FILLER_28_85
*752 FILLER_28_97
*753 FILLER_29_105
*754 FILLER_29_111
*755 FILLER_29_113
*756 FILLER_29_125
*757 FILLER_29_137
*758 FILLER_29_149
*759 FILLER_29_15
*760 FILLER_29_161
*761 FILLER_29_167
*762 FILLER_29_169
*763 FILLER_29_181
*764 FILLER_29_193
*765 FILLER_29_205
*766 FILLER_29_217
*767 FILLER_29_223
*768 FILLER_29_225
*769 FILLER_29_237
*770 FILLER_29_249
*771 FILLER_29_261
*772 FILLER_29_27
*773 FILLER_29_273
*774 FILLER_29_279
*775 FILLER_29_281
*776 FILLER_29_293
*777 FILLER_29_3
*778 FILLER_29_39
*779 FILLER_29_51
*780 FILLER_29_55
*781 FILLER_29_57
*782 FILLER_29_69
*783 FILLER_29_81
*784 FILLER_29_93
*785 FILLER_2_109
*786 FILLER_2_12
*787 FILLER_2_121
*788 FILLER_2_133
*789 FILLER_2_139
*790 FILLER_2_141
*791 FILLER_2_153
*792 FILLER_2_165
*793 FILLER_2_177
*794 FILLER_2_189
*795 FILLER_2_195
*796 FILLER_2_197
*797 FILLER_2_20
*798 FILLER_2_209
*799 FILLER_2_221
*800 FILLER_2_233
*801 FILLER_2_245
*802 FILLER_2_251
*803 FILLER_2_253
*804 FILLER_2_265
*805 FILLER_2_277
*806 FILLER_2_289
*807 FILLER_2_29
*808 FILLER_2_297
*809 FILLER_2_41
*810 FILLER_2_53
*811 FILLER_2_65
*812 FILLER_2_77
*813 FILLER_2_83
*814 FILLER_2_85
*815 FILLER_2_97
*816 FILLER_30_109
*817 FILLER_30_121
*818 FILLER_30_133
*819 FILLER_30_139
*820 FILLER_30_141
*821 FILLER_30_15
*822 FILLER_30_153
*823 FILLER_30_165
*824 FILLER_30_177
*825 FILLER_30_189
*826 FILLER_30_195
*827 FILLER_30_197
*828 FILLER_30_209
*829 FILLER_30_221
*830 FILLER_30_233
*831 FILLER_30_245
*832 FILLER_30_251
*833 FILLER_30_253
*834 FILLER_30_265
*835 FILLER_30_27
*836 FILLER_30_277
*837 FILLER_30_289
*838 FILLER_30_29
*839 FILLER_30_297
*840 FILLER_30_3
*841 FILLER_30_41
*842 FILLER_30_53
*843 FILLER_30_65
*844 FILLER_30_77
*845 FILLER_30_83
*846 FILLER_30_85
*847 FILLER_30_97
*848 FILLER_31_105
*849 FILLER_31_111
*850 FILLER_31_113
*851 FILLER_31_125
*852 FILLER_31_137
*853 FILLER_31_149
*854 FILLER_31_161
*855 FILLER_31_167
*856 FILLER_31_169
*857 FILLER_31_181
*858 FILLER_31_193
*859 FILLER_31_205
*860 FILLER_31_21
*861 FILLER_31_217
*862 FILLER_31_223
*863 FILLER_31_225
*864 FILLER_31_237
*865 FILLER_31_249
*866 FILLER_31_261
*867 FILLER_31_273
*868 FILLER_31_279
*869 FILLER_31_281
*870 FILLER_31_293
*871 FILLER_31_3
*872 FILLER_31_33
*873 FILLER_31_45
*874 FILLER_31_53
*875 FILLER_31_57
*876 FILLER_31_69
*877 FILLER_31_81
*878 FILLER_31_9
*879 FILLER_31_93
*880 FILLER_32_109
*881 FILLER_32_121
*882 FILLER_32_133
*883 FILLER_32_139
*884 FILLER_32_141
*885 FILLER_32_153
*886 FILLER_32_165
*887 FILLER_32_177
*888 FILLER_32_189
*889 FILLER_32_195
*890 FILLER_32_197
*891 FILLER_32_20
*892 FILLER_32_209
*893 FILLER_32_221
*894 FILLER_32_233
*895 FILLER_32_245
*896 FILLER_32_251
*897 FILLER_32_253
*898 FILLER_32_265
*899 FILLER_32_277
*900 FILLER_32_289
*901 FILLER_32_29
*902 FILLER_32_297
*903 FILLER_32_3
*904 FILLER_32_41
*905 FILLER_32_53
*906 FILLER_32_65
*907 FILLER_32_77
*908 FILLER_32_8
*909 FILLER_32_83
*910 FILLER_32_85
*911 FILLER_32_97
*912 FILLER_33_105
*913 FILLER_33_111
*914 FILLER_33_113
*915 FILLER_33_125
*916 FILLER_33_137
*917 FILLER_33_149
*918 FILLER_33_161
*919 FILLER_33_167
*920 FILLER_33_169
*921 FILLER_33_181
*922 FILLER_33_193
*923 FILLER_33_205
*924 FILLER_33_217
*925 FILLER_33_223
*926 FILLER_33_225
*927 FILLER_33_23
*928 FILLER_33_237
*929 FILLER_33_249
*930 FILLER_33_261
*931 FILLER_33_273
*932 FILLER_33_279
*933 FILLER_33_281
*934 FILLER_33_293
*935 FILLER_33_3
*936 FILLER_33_35
*937 FILLER_33_47
*938 FILLER_33_55
*939 FILLER_33_57
*940 FILLER_33_69
*941 FILLER_33_81
*942 FILLER_33_93
*943 FILLER_34_109
*944 FILLER_34_121
*945 FILLER_34_133
*946 FILLER_34_139
*947 FILLER_34_141
*948 FILLER_34_153
*949 FILLER_34_165
*950 FILLER_34_177
*951 FILLER_34_189
*952 FILLER_34_195
*953 FILLER_34_197
*954 FILLER_34_209
*955 FILLER_34_221
*956 FILLER_34_23
*957 FILLER_34_233
*958 FILLER_34_245
*959 FILLER_34_251
*960 FILLER_34_253
*961 FILLER_34_265
*962 FILLER_34_27
*963 FILLER_34_277
*964 FILLER_34_289
*965 FILLER_34_297
*966 FILLER_34_3
*967 FILLER_34_32
*968 FILLER_34_44
*969 FILLER_34_56
*970 FILLER_34_68
*971 FILLER_34_80
*972 FILLER_34_85
*973 FILLER_34_97
*974 FILLER_35_105
*975 FILLER_35_111
*976 FILLER_35_113
*977 FILLER_35_12
*978 FILLER_35_125
*979 FILLER_35_137
*980 FILLER_35_149
*981 FILLER_35_161
*982 FILLER_35_167
*983 FILLER_35_169
*984 FILLER_35_181
*985 FILLER_35_193
*986 FILLER_35_205
*987 FILLER_35_217
*988 FILLER_35_223
*989 FILLER_35_225
*990 FILLER_35_237
*991 FILLER_35_249
*992 FILLER_35_261
*993 FILLER_35_273
*994 FILLER_35_279
*995 FILLER_35_281
*996 FILLER_35_293
*997 FILLER_35_3
*998 FILLER_35_36
*999 FILLER_35_48
*1000 FILLER_35_57
*1001 FILLER_35_69
*1002 FILLER_35_81
*1003 FILLER_35_93
*1004 FILLER_36_109
*1005 FILLER_36_121
*1006 FILLER_36_13
*1007 FILLER_36_133
*1008 FILLER_36_139
*1009 FILLER_36_141
*1010 FILLER_36_153
*1011 FILLER_36_165
*1012 FILLER_36_177
*1013 FILLER_36_189
*1014 FILLER_36_195
*1015 FILLER_36_197
*1016 FILLER_36_209
*1017 FILLER_36_21
*1018 FILLER_36_221
*1019 FILLER_36_233
*1020 FILLER_36_245
*1021 FILLER_36_251
*1022 FILLER_36_253
*1023 FILLER_36_265
*1024 FILLER_36_27
*1025 FILLER_36_277
*1026 FILLER_36_289
*1027 FILLER_36_297
*1028 FILLER_36_3
*1029 FILLER_36_32
*1030 FILLER_36_44
*1031 FILLER_36_56
*1032 FILLER_36_68
*1033 FILLER_36_7
*1034 FILLER_36_80
*1035 FILLER_36_85
*1036 FILLER_36_97
*1037 FILLER_37_105
*1038 FILLER_37_111
*1039 FILLER_37_113
*1040 FILLER_37_125
*1041 FILLER_37_13
*1042 FILLER_37_137
*1043 FILLER_37_149
*1044 FILLER_37_161
*1045 FILLER_37_167
*1046 FILLER_37_169
*1047 FILLER_37_181
*1048 FILLER_37_193
*1049 FILLER_37_20
*1050 FILLER_37_205
*1051 FILLER_37_217
*1052 FILLER_37_223
*1053 FILLER_37_225
*1054 FILLER_37_237
*1055 FILLER_37_249
*1056 FILLER_37_261
*1057 FILLER_37_273
*1058 FILLER_37_279
*1059 FILLER_37_281
*1060 FILLER_37_293
*1061 FILLER_37_3
*1062 FILLER_37_32
*1063 FILLER_37_44
*1064 FILLER_37_57
*1065 FILLER_37_69
*1066 FILLER_37_7
*1067 FILLER_37_81
*1068 FILLER_37_93
*1069 FILLER_38_109
*1070 FILLER_38_121
*1071 FILLER_38_133
*1072 FILLER_38_139
*1073 FILLER_38_141
*1074 FILLER_38_153
*1075 FILLER_38_165
*1076 FILLER_38_177
*1077 FILLER_38_189
*1078 FILLER_38_195
*1079 FILLER_38_197
*1080 FILLER_38_209
*1081 FILLER_38_221
*1082 FILLER_38_233
*1083 FILLER_38_24
*1084 FILLER_38_245
*1085 FILLER_38_251
*1086 FILLER_38_253
*1087 FILLER_38_265
*1088 FILLER_38_277
*1089 FILLER_38_289
*1090 FILLER_38_29
*1091 FILLER_38_297
*1092 FILLER_38_3
*1093 FILLER_38_41
*1094 FILLER_38_53
*1095 FILLER_38_65
*1096 FILLER_38_7
*1097 FILLER_38_77
*1098 FILLER_38_83
*1099 FILLER_38_85
*1100 FILLER_38_97
*1101 FILLER_39_105
*1102 FILLER_39_111
*1103 FILLER_39_113
*1104 FILLER_39_12
*1105 FILLER_39_125
*1106 FILLER_39_137
*1107 FILLER_39_149
*1108 FILLER_39_161
*1109 FILLER_39_167
*1110 FILLER_39_169
*1111 FILLER_39_181
*1112 FILLER_39_193
*1113 FILLER_39_205
*1114 FILLER_39_217
*1115 FILLER_39_223
*1116 FILLER_39_225
*1117 FILLER_39_237
*1118 FILLER_39_249
*1119 FILLER_39_261
*1120 FILLER_39_273
*1121 FILLER_39_279
*1122 FILLER_39_281
*1123 FILLER_39_293
*1124 FILLER_39_3
*1125 FILLER_39_36
*1126 FILLER_39_48
*1127 FILLER_39_57
*1128 FILLER_39_69
*1129 FILLER_39_81
*1130 FILLER_39_93
*1131 FILLER_3_105
*1132 FILLER_3_111
*1133 FILLER_3_113
*1134 FILLER_3_125
*1135 FILLER_3_137
*1136 FILLER_3_149
*1137 FILLER_3_161
*1138 FILLER_3_167
*1139 FILLER_3_169
*1140 FILLER_3_181
*1141 FILLER_3_193
*1142 FILLER_3_205
*1143 FILLER_3_217
*1144 FILLER_3_223
*1145 FILLER_3_225
*1146 FILLER_3_237
*1147 FILLER_3_249
*1148 FILLER_3_261
*1149 FILLER_3_27
*1150 FILLER_3_273
*1151 FILLER_3_279
*1152 FILLER_3_281
*1153 FILLER_3_293
*1154 FILLER_3_3
*1155 FILLER_3_35
*1156 FILLER_3_43
*1157 FILLER_3_48
*1158 FILLER_3_57
*1159 FILLER_3_69
*1160 FILLER_3_81
*1161 FILLER_3_93
*1162 FILLER_40_109
*1163 FILLER_40_121
*1164 FILLER_40_133
*1165 FILLER_40_139
*1166 FILLER_40_141
*1167 FILLER_40_153
*1168 FILLER_40_165
*1169 FILLER_40_177
*1170 FILLER_40_189
*1171 FILLER_40_195
*1172 FILLER_40_197
*1173 FILLER_40_209
*1174 FILLER_40_221
*1175 FILLER_40_23
*1176 FILLER_40_233
*1177 FILLER_40_245
*1178 FILLER_40_251
*1179 FILLER_40_253
*1180 FILLER_40_265
*1181 FILLER_40_27
*1182 FILLER_40_277
*1183 FILLER_40_289
*1184 FILLER_40_297
*1185 FILLER_40_3
*1186 FILLER_40_32
*1187 FILLER_40_39
*1188 FILLER_40_51
*1189 FILLER_40_63
*1190 FILLER_40_75
*1191 FILLER_40_83
*1192 FILLER_40_85
*1193 FILLER_40_97
*1194 FILLER_41_105
*1195 FILLER_41_111
*1196 FILLER_41_113
*1197 FILLER_41_125
*1198 FILLER_41_137
*1199 FILLER_41_149
*1200 FILLER_41_15
*1201 FILLER_41_161
*1202 FILLER_41_167
*1203 FILLER_41_169
*1204 FILLER_41_181
*1205 FILLER_41_193
*1206 FILLER_41_205
*1207 FILLER_41_217
*1208 FILLER_41_223
*1209 FILLER_41_225
*1210 FILLER_41_237
*1211 FILLER_41_249
*1212 FILLER_41_261
*1213 FILLER_41_273
*1214 FILLER_41_279
*1215 FILLER_41_281
*1216 FILLER_41_293
*1217 FILLER_41_36
*1218 FILLER_41_48
*1219 FILLER_41_57
*1220 FILLER_41_69
*1221 FILLER_41_7
*1222 FILLER_41_81
*1223 FILLER_41_93
*1224 FILLER_42_109
*1225 FILLER_42_121
*1226 FILLER_42_133
*1227 FILLER_42_139
*1228 FILLER_42_141
*1229 FILLER_42_153
*1230 FILLER_42_165
*1231 FILLER_42_17
*1232 FILLER_42_177
*1233 FILLER_42_189
*1234 FILLER_42_195
*1235 FILLER_42_197
*1236 FILLER_42_209
*1237 FILLER_42_221
*1238 FILLER_42_233
*1239 FILLER_42_245
*1240 FILLER_42_25
*1241 FILLER_42_251
*1242 FILLER_42_253
*1243 FILLER_42_265
*1244 FILLER_42_277
*1245 FILLER_42_289
*1246 FILLER_42_29
*1247 FILLER_42_297
*1248 FILLER_42_3
*1249 FILLER_42_41
*1250 FILLER_42_53
*1251 FILLER_42_65
*1252 FILLER_42_77
*1253 FILLER_42_83
*1254 FILLER_42_85
*1255 FILLER_42_9
*1256 FILLER_42_97
*1257 FILLER_43_105
*1258 FILLER_43_111
*1259 FILLER_43_113
*1260 FILLER_43_125
*1261 FILLER_43_13
*1262 FILLER_43_137
*1263 FILLER_43_149
*1264 FILLER_43_161
*1265 FILLER_43_167
*1266 FILLER_43_169
*1267 FILLER_43_181
*1268 FILLER_43_193
*1269 FILLER_43_20
*1270 FILLER_43_205
*1271 FILLER_43_217
*1272 FILLER_43_223
*1273 FILLER_43_225
*1274 FILLER_43_237
*1275 FILLER_43_249
*1276 FILLER_43_261
*1277 FILLER_43_273
*1278 FILLER_43_279
*1279 FILLER_43_281
*1280 FILLER_43_293
*1281 FILLER_43_3
*1282 FILLER_43_32
*1283 FILLER_43_44
*1284 FILLER_43_57
*1285 FILLER_43_69
*1286 FILLER_43_81
*1287 FILLER_43_93
*1288 FILLER_44_109
*1289 FILLER_44_121
*1290 FILLER_44_133
*1291 FILLER_44_139
*1292 FILLER_44_141
*1293 FILLER_44_153
*1294 FILLER_44_165
*1295 FILLER_44_177
*1296 FILLER_44_189
*1297 FILLER_44_195
*1298 FILLER_44_197
*1299 FILLER_44_209
*1300 FILLER_44_22
*1301 FILLER_44_221
*1302 FILLER_44_233
*1303 FILLER_44_245
*1304 FILLER_44_251
*1305 FILLER_44_253
*1306 FILLER_44_265
*1307 FILLER_44_277
*1308 FILLER_44_289
*1309 FILLER_44_29
*1310 FILLER_44_297
*1311 FILLER_44_3
*1312 FILLER_44_41
*1313 FILLER_44_53
*1314 FILLER_44_65
*1315 FILLER_44_77
*1316 FILLER_44_83
*1317 FILLER_44_85
*1318 FILLER_44_97
*1319 FILLER_45_105
*1320 FILLER_45_111
*1321 FILLER_45_113
*1322 FILLER_45_125
*1323 FILLER_45_137
*1324 FILLER_45_149
*1325 FILLER_45_16
*1326 FILLER_45_161
*1327 FILLER_45_167
*1328 FILLER_45_169
*1329 FILLER_45_181
*1330 FILLER_45_193
*1331 FILLER_45_205
*1332 FILLER_45_217
*1333 FILLER_45_223
*1334 FILLER_45_225
*1335 FILLER_45_237
*1336 FILLER_45_249
*1337 FILLER_45_261
*1338 FILLER_45_273
*1339 FILLER_45_279
*1340 FILLER_45_28
*1341 FILLER_45_281
*1342 FILLER_45_293
*1343 FILLER_45_3
*1344 FILLER_45_40
*1345 FILLER_45_52
*1346 FILLER_45_57
*1347 FILLER_45_69
*1348 FILLER_45_81
*1349 FILLER_45_9
*1350 FILLER_45_93
*1351 FILLER_46_109
*1352 FILLER_46_121
*1353 FILLER_46_133
*1354 FILLER_46_139
*1355 FILLER_46_141
*1356 FILLER_46_153
*1357 FILLER_46_165
*1358 FILLER_46_177
*1359 FILLER_46_189
*1360 FILLER_46_195
*1361 FILLER_46_197
*1362 FILLER_46_209
*1363 FILLER_46_22
*1364 FILLER_46_221
*1365 FILLER_46_233
*1366 FILLER_46_245
*1367 FILLER_46_251
*1368 FILLER_46_253
*1369 FILLER_46_265
*1370 FILLER_46_277
*1371 FILLER_46_289
*1372 FILLER_46_29
*1373 FILLER_46_297
*1374 FILLER_46_3
*1375 FILLER_46_41
*1376 FILLER_46_53
*1377 FILLER_46_65
*1378 FILLER_46_77
*1379 FILLER_46_83
*1380 FILLER_46_85
*1381 FILLER_46_97
*1382 FILLER_47_105
*1383 FILLER_47_111
*1384 FILLER_47_113
*1385 FILLER_47_125
*1386 FILLER_47_137
*1387 FILLER_47_149
*1388 FILLER_47_161
*1389 FILLER_47_167
*1390 FILLER_47_169
*1391 FILLER_47_181
*1392 FILLER_47_193
*1393 FILLER_47_205
*1394 FILLER_47_21
*1395 FILLER_47_217
*1396 FILLER_47_223
*1397 FILLER_47_225
*1398 FILLER_47_237
*1399 FILLER_47_249
*1400 FILLER_47_261
*1401 FILLER_47_273
*1402 FILLER_47_279
*1403 FILLER_47_281
*1404 FILLER_47_293
*1405 FILLER_47_3
*1406 FILLER_47_33
*1407 FILLER_47_45
*1408 FILLER_47_53
*1409 FILLER_47_57
*1410 FILLER_47_69
*1411 FILLER_47_81
*1412 FILLER_47_9
*1413 FILLER_47_93
*1414 FILLER_48_109
*1415 FILLER_48_121
*1416 FILLER_48_133
*1417 FILLER_48_139
*1418 FILLER_48_141
*1419 FILLER_48_153
*1420 FILLER_48_165
*1421 FILLER_48_177
*1422 FILLER_48_189
*1423 FILLER_48_195
*1424 FILLER_48_197
*1425 FILLER_48_209
*1426 FILLER_48_21
*1427 FILLER_48_221
*1428 FILLER_48_233
*1429 FILLER_48_245
*1430 FILLER_48_251
*1431 FILLER_48_253
*1432 FILLER_48_265
*1433 FILLER_48_27
*1434 FILLER_48_277
*1435 FILLER_48_289
*1436 FILLER_48_29
*1437 FILLER_48_297
*1438 FILLER_48_3
*1439 FILLER_48_41
*1440 FILLER_48_53
*1441 FILLER_48_65
*1442 FILLER_48_77
*1443 FILLER_48_83
*1444 FILLER_48_85
*1445 FILLER_48_9
*1446 FILLER_48_97
*1447 FILLER_49_105
*1448 FILLER_49_111
*1449 FILLER_49_113
*1450 FILLER_49_125
*1451 FILLER_49_137
*1452 FILLER_49_149
*1453 FILLER_49_15
*1454 FILLER_49_161
*1455 FILLER_49_167
*1456 FILLER_49_169
*1457 FILLER_49_181
*1458 FILLER_49_193
*1459 FILLER_49_205
*1460 FILLER_49_217
*1461 FILLER_49_223
*1462 FILLER_49_225
*1463 FILLER_49_237
*1464 FILLER_49_249
*1465 FILLER_49_261
*1466 FILLER_49_27
*1467 FILLER_49_273
*1468 FILLER_49_279
*1469 FILLER_49_281
*1470 FILLER_49_293
*1471 FILLER_49_3
*1472 FILLER_49_39
*1473 FILLER_49_51
*1474 FILLER_49_55
*1475 FILLER_49_57
*1476 FILLER_49_69
*1477 FILLER_49_81
*1478 FILLER_49_93
*1479 FILLER_4_109
*1480 FILLER_4_121
*1481 FILLER_4_133
*1482 FILLER_4_139
*1483 FILLER_4_141
*1484 FILLER_4_153
*1485 FILLER_4_165
*1486 FILLER_4_177
*1487 FILLER_4_189
*1488 FILLER_4_195
*1489 FILLER_4_197
*1490 FILLER_4_209
*1491 FILLER_4_221
*1492 FILLER_4_233
*1493 FILLER_4_24
*1494 FILLER_4_245
*1495 FILLER_4_251
*1496 FILLER_4_253
*1497 FILLER_4_265
*1498 FILLER_4_277
*1499 FILLER_4_289
*1500 FILLER_4_29
*1501 FILLER_4_297
*1502 FILLER_4_3
*1503 FILLER_4_37
*1504 FILLER_4_61
*1505 FILLER_4_7
*1506 FILLER_4_73
*1507 FILLER_4_81
*1508 FILLER_4_85
*1509 FILLER_4_97
*1510 FILLER_50_109
*1511 FILLER_50_121
*1512 FILLER_50_133
*1513 FILLER_50_139
*1514 FILLER_50_141
*1515 FILLER_50_15
*1516 FILLER_50_153
*1517 FILLER_50_165
*1518 FILLER_50_177
*1519 FILLER_50_189
*1520 FILLER_50_195
*1521 FILLER_50_197
*1522 FILLER_50_209
*1523 FILLER_50_221
*1524 FILLER_50_233
*1525 FILLER_50_245
*1526 FILLER_50_251
*1527 FILLER_50_253
*1528 FILLER_50_265
*1529 FILLER_50_27
*1530 FILLER_50_277
*1531 FILLER_50_289
*1532 FILLER_50_29
*1533 FILLER_50_297
*1534 FILLER_50_3
*1535 FILLER_50_41
*1536 FILLER_50_53
*1537 FILLER_50_65
*1538 FILLER_50_77
*1539 FILLER_50_83
*1540 FILLER_50_85
*1541 FILLER_50_97
*1542 FILLER_51_105
*1543 FILLER_51_111
*1544 FILLER_51_113
*1545 FILLER_51_125
*1546 FILLER_51_137
*1547 FILLER_51_149
*1548 FILLER_51_15
*1549 FILLER_51_161
*1550 FILLER_51_167
*1551 FILLER_51_169
*1552 FILLER_51_181
*1553 FILLER_51_193
*1554 FILLER_51_205
*1555 FILLER_51_217
*1556 FILLER_51_223
*1557 FILLER_51_225
*1558 FILLER_51_237
*1559 FILLER_51_249
*1560 FILLER_51_261
*1561 FILLER_51_27
*1562 FILLER_51_273
*1563 FILLER_51_279
*1564 FILLER_51_281
*1565 FILLER_51_293
*1566 FILLER_51_3
*1567 FILLER_51_39
*1568 FILLER_51_51
*1569 FILLER_51_55
*1570 FILLER_51_57
*1571 FILLER_51_69
*1572 FILLER_51_81
*1573 FILLER_51_93
*1574 FILLER_52_109
*1575 FILLER_52_121
*1576 FILLER_52_133
*1577 FILLER_52_139
*1578 FILLER_52_141
*1579 FILLER_52_15
*1580 FILLER_52_153
*1581 FILLER_52_165
*1582 FILLER_52_177
*1583 FILLER_52_189
*1584 FILLER_52_195
*1585 FILLER_52_197
*1586 FILLER_52_209
*1587 FILLER_52_221
*1588 FILLER_52_233
*1589 FILLER_52_245
*1590 FILLER_52_251
*1591 FILLER_52_253
*1592 FILLER_52_265
*1593 FILLER_52_27
*1594 FILLER_52_277