*SPEF "ieee 1481-1999"
*DESIGN "user_module_349546262775726676"
*DATE "11:11:11 Fri 11 11, 1111"
*VENDOR "OpenRCX"
*PROGRAM "Parallel Extraction"
*VERSION "1.0"
*DESIGN_FLOW "NAME_SCOPE LOCAL" "PIN_CAP NONE"
*DIVIDER /
*DELIMITER :
*BUS_DELIMITER []
*T_UNIT 1 NS
*C_UNIT 1 PF
*R_UNIT 1 OHM
*L_UNIT 1 HENRY

*NAME_MAP
*1 io_in[0]
*2 io_in[1]
*3 io_in[2]
*4 io_in[3]
*5 io_in[4]
*6 io_in[5]
*7 io_in[6]
*8 io_in[7]
*9 io_out[0]
*10 io_out[1]
*11 io_out[2]
*12 io_out[3]
*13 io_out[4]
*14 io_out[5]
*15 io_out[6]
*16 io_out[7]
*19 _00_
*20 _01_
*21 _02_
*22 _03_
*23 _04_
*24 _05_
*25 _06_
*26 _07_
*27 _08_
*28 _09_
*29 _10_
*30 _11_
*31 _12_
*32 _13_
*33 _14_
*34 _15_
*35 clknet_0__07_
*36 clknet_0__08_
*37 clknet_0__09_
*38 clknet_0_gate49\.out
*39 clknet_0_io_in[0]
*40 clknet_1_0__leaf__07_
*41 clknet_1_0__leaf__08_
*42 clknet_1_0__leaf__09_
*43 clknet_1_0__leaf_gate49\.out
*44 clknet_1_0__leaf_io_in[0]
*45 clknet_1_1__leaf__07_
*46 clknet_1_1__leaf__08_
*47 clknet_1_1__leaf__09_
*48 clknet_1_1__leaf_gate49\.out
*49 clknet_1_1__leaf_io_in[0]
*50 gate44\.out
*51 gate45\.out
*52 gate46\.out
*53 gate47\.out
*54 gate48\.out
*55 gate49\.out
*56 gate50\.out
*57 gate51\.out
*58 net1
*59 net2
*60 net3
*61 net4
*62 net5
*63 FILLER_0_109
*64 FILLER_0_113
*65 FILLER_0_125
*66 FILLER_0_137
*67 FILLER_0_141
*68 FILLER_0_15
*69 FILLER_0_153
*70 FILLER_0_165
*71 FILLER_0_169
*72 FILLER_0_181
*73 FILLER_0_193
*74 FILLER_0_197
*75 FILLER_0_209
*76 FILLER_0_221
*77 FILLER_0_225
*78 FILLER_0_237
*79 FILLER_0_249
*80 FILLER_0_253
*81 FILLER_0_265
*82 FILLER_0_27
*83 FILLER_0_277
*84 FILLER_0_281
*85 FILLER_0_29
*86 FILLER_0_293
*87 FILLER_0_3
*88 FILLER_0_41
*89 FILLER_0_53
*90 FILLER_0_57
*91 FILLER_0_69
*92 FILLER_0_81
*93 FILLER_0_85
*94 FILLER_0_97
*95 FILLER_10_109
*96 FILLER_10_121
*97 FILLER_10_133
*98 FILLER_10_139
*99 FILLER_10_141
*100 FILLER_10_15
*101 FILLER_10_153
*102 FILLER_10_165
*103 FILLER_10_177
*104 FILLER_10_189
*105 FILLER_10_195
*106 FILLER_10_197
*107 FILLER_10_209
*108 FILLER_10_221
*109 FILLER_10_233
*110 FILLER_10_245
*111 FILLER_10_251
*112 FILLER_10_253
*113 FILLER_10_265
*114 FILLER_10_27
*115 FILLER_10_277
*116 FILLER_10_289
*117 FILLER_10_29
*118 FILLER_10_297
*119 FILLER_10_3
*120 FILLER_10_41
*121 FILLER_10_53
*122 FILLER_10_65
*123 FILLER_10_77
*124 FILLER_10_83
*125 FILLER_10_85
*126 FILLER_10_97
*127 FILLER_11_105
*128 FILLER_11_111
*129 FILLER_11_113
*130 FILLER_11_125
*131 FILLER_11_137
*132 FILLER_11_149
*133 FILLER_11_15
*134 FILLER_11_161
*135 FILLER_11_167
*136 FILLER_11_169
*137 FILLER_11_181
*138 FILLER_11_193
*139 FILLER_11_205
*140 FILLER_11_217
*141 FILLER_11_223
*142 FILLER_11_225
*143 FILLER_11_237
*144 FILLER_11_249
*145 FILLER_11_261
*146 FILLER_11_27
*147 FILLER_11_273
*148 FILLER_11_279
*149 FILLER_11_281
*150 FILLER_11_293
*151 FILLER_11_3
*152 FILLER_11_39
*153 FILLER_11_51
*154 FILLER_11_55
*155 FILLER_11_57
*156 FILLER_11_69
*157 FILLER_11_81
*158 FILLER_11_93
*159 FILLER_12_109
*160 FILLER_12_121
*161 FILLER_12_133
*162 FILLER_12_139
*163 FILLER_12_141
*164 FILLER_12_153
*165 FILLER_12_165
*166 FILLER_12_177
*167 FILLER_12_18
*168 FILLER_12_189
*169 FILLER_12_195
*170 FILLER_12_197
*171 FILLER_12_209
*172 FILLER_12_221
*173 FILLER_12_233
*174 FILLER_12_245
*175 FILLER_12_251
*176 FILLER_12_253
*177 FILLER_12_26
*178 FILLER_12_265
*179 FILLER_12_277
*180 FILLER_12_289
*181 FILLER_12_29
*182 FILLER_12_297
*183 FILLER_12_41
*184 FILLER_12_53
*185 FILLER_12_6
*186 FILLER_12_65
*187 FILLER_12_77
*188 FILLER_12_83
*189 FILLER_12_85
*190 FILLER_12_97
*191 FILLER_13_105
*192 FILLER_13_111
*193 FILLER_13_113
*194 FILLER_13_125
*195 FILLER_13_137
*196 FILLER_13_149
*197 FILLER_13_15
*198 FILLER_13_161
*199 FILLER_13_167
*200 FILLER_13_169
*201 FILLER_13_181
*202 FILLER_13_193
*203 FILLER_13_205
*204 FILLER_13_217
*205 FILLER_13_223
*206 FILLER_13_225
*207 FILLER_13_237
*208 FILLER_13_249
*209 FILLER_13_261
*210 FILLER_13_27
*211 FILLER_13_273
*212 FILLER_13_279
*213 FILLER_13_281
*214 FILLER_13_293
*215 FILLER_13_3
*216 FILLER_13_39
*217 FILLER_13_51
*218 FILLER_13_55
*219 FILLER_13_57
*220 FILLER_13_69
*221 FILLER_13_81
*222 FILLER_13_93
*223 FILLER_14_109
*224 FILLER_14_121
*225 FILLER_14_133
*226 FILLER_14_139
*227 FILLER_14_141
*228 FILLER_14_15
*229 FILLER_14_153
*230 FILLER_14_165
*231 FILLER_14_177
*232 FILLER_14_189
*233 FILLER_14_195
*234 FILLER_14_197
*235 FILLER_14_209
*236 FILLER_14_221
*237 FILLER_14_233
*238 FILLER_14_245
*239 FILLER_14_251
*240 FILLER_14_253
*241 FILLER_14_265
*242 FILLER_14_27
*243 FILLER_14_277
*244 FILLER_14_289
*245 FILLER_14_29
*246 FILLER_14_297
*247 FILLER_14_3
*248 FILLER_14_41
*249 FILLER_14_53
*250 FILLER_14_65
*251 FILLER_14_77
*252 FILLER_14_83
*253 FILLER_14_85
*254 FILLER_14_97
*255 FILLER_15_105
*256 FILLER_15_111
*257 FILLER_15_113
*258 FILLER_15_125
*259 FILLER_15_137
*260 FILLER_15_149
*261 FILLER_15_15
*262 FILLER_15_161
*263 FILLER_15_167
*264 FILLER_15_169
*265 FILLER_15_181
*266 FILLER_15_193
*267 FILLER_15_205
*268 FILLER_15_217
*269 FILLER_15_223
*270 FILLER_15_225
*271 FILLER_15_237
*272 FILLER_15_249
*273 FILLER_15_261
*274 FILLER_15_27
*275 FILLER_15_273
*276 FILLER_15_279
*277 FILLER_15_281
*278 FILLER_15_293
*279 FILLER_15_3
*280 FILLER_15_39
*281 FILLER_15_51
*282 FILLER_15_55
*283 FILLER_15_57
*284 FILLER_15_69
*285 FILLER_15_81
*286 FILLER_15_93
*287 FILLER_16_109
*288 FILLER_16_121
*289 FILLER_16_133
*290 FILLER_16_139
*291 FILLER_16_141
*292 FILLER_16_153
*293 FILLER_16_165
*294 FILLER_16_177
*295 FILLER_16_18
*296 FILLER_16_189
*297 FILLER_16_195
*298 FILLER_16_197
*299 FILLER_16_209
*300 FILLER_16_221
*301 FILLER_16_233
*302 FILLER_16_245
*303 FILLER_16_251
*304 FILLER_16_253
*305 FILLER_16_26
*306 FILLER_16_265
*307 FILLER_16_277
*308 FILLER_16_289
*309 FILLER_16_29
*310 FILLER_16_297
*311 FILLER_16_41
*312 FILLER_16_53
*313 FILLER_16_6
*314 FILLER_16_65
*315 FILLER_16_77
*316 FILLER_16_83
*317 FILLER_16_85
*318 FILLER_16_97
*319 FILLER_17_105
*320 FILLER_17_111
*321 FILLER_17_113
*322 FILLER_17_125
*323 FILLER_17_137
*324 FILLER_17_149
*325 FILLER_17_15
*326 FILLER_17_161
*327 FILLER_17_167
*328 FILLER_17_169
*329 FILLER_17_181
*330 FILLER_17_193
*331 FILLER_17_205
*332 FILLER_17_217
*333 FILLER_17_223
*334 FILLER_17_225
*335 FILLER_17_237
*336 FILLER_17_249
*337 FILLER_17_261
*338 FILLER_17_27
*339 FILLER_17_273
*340 FILLER_17_279
*341 FILLER_17_281
*342 FILLER_17_293
*343 FILLER_17_3
*344 FILLER_17_39
*345 FILLER_17_51
*346 FILLER_17_55
*347 FILLER_17_57
*348 FILLER_17_69
*349 FILLER_17_81
*350 FILLER_17_93
*351 FILLER_18_109
*352 FILLER_18_121
*353 FILLER_18_133
*354 FILLER_18_139
*355 FILLER_18_141
*356 FILLER_18_15
*357 FILLER_18_153
*358 FILLER_18_165
*359 FILLER_18_177
*360 FILLER_18_189
*361 FILLER_18_195
*362 FILLER_18_197
*363 FILLER_18_209
*364 FILLER_18_221
*365 FILLER_18_233
*366 FILLER_18_245
*367 FILLER_18_251
*368 FILLER_18_253
*369 FILLER_18_265
*370 FILLER_18_27
*371 FILLER_18_277
*372 FILLER_18_289
*373 FILLER_18_29
*374 FILLER_18_297
*375 FILLER_18_3
*376 FILLER_18_41
*377 FILLER_18_53
*378 FILLER_18_65
*379 FILLER_18_77
*380 FILLER_18_83
*381 FILLER_18_85
*382 FILLER_18_97
*383 FILLER_19_105
*384 FILLER_19_111
*385 FILLER_19_113
*386 FILLER_19_125
*387 FILLER_19_137
*388 FILLER_19_149
*389 FILLER_19_15
*390 FILLER_19_161
*391 FILLER_19_167
*392 FILLER_19_169
*393 FILLER_19_181
*394 FILLER_19_193
*395 FILLER_19_205
*396 FILLER_19_217
*397 FILLER_19_223
*398 FILLER_19_225
*399 FILLER_19_237
*400 FILLER_19_249
*401 FILLER_19_261
*402 FILLER_19_27
*403 FILLER_19_273
*404 FILLER_19_279
*405 FILLER_19_281
*406 FILLER_19_293
*407 FILLER_19_3
*408 FILLER_19_39
*409 FILLER_19_51
*410 FILLER_19_55
*411 FILLER_19_57
*412 FILLER_19_69
*413 FILLER_19_81
*414 FILLER_19_93
*415 FILLER_1_105
*416 FILLER_1_111
*417 FILLER_1_113
*418 FILLER_1_125
*419 FILLER_1_137
*420 FILLER_1_149
*421 FILLER_1_15
*422 FILLER_1_161
*423 FILLER_1_167
*424 FILLER_1_169
*425 FILLER_1_181
*426 FILLER_1_193
*427 FILLER_1_205
*428 FILLER_1_217
*429 FILLER_1_223
*430 FILLER_1_225
*431 FILLER_1_237
*432 FILLER_1_249
*433 FILLER_1_261
*434 FILLER_1_27
*435 FILLER_1_273
*436 FILLER_1_279
*437 FILLER_1_281
*438 FILLER_1_293
*439 FILLER_1_3
*440 FILLER_1_39
*441 FILLER_1_51
*442 FILLER_1_55
*443 FILLER_1_57
*444 FILLER_1_69
*445 FILLER_1_81
*446 FILLER_1_93
*447 FILLER_20_109
*448 FILLER_20_11
*449 FILLER_20_121
*450 FILLER_20_133
*451 FILLER_20_139
*452 FILLER_20_141
*453 FILLER_20_153
*454 FILLER_20_165
*455 FILLER_20_177
*456 FILLER_20_189
*457 FILLER_20_195
*458 FILLER_20_197
*459 FILLER_20_209
*460 FILLER_20_221
*461 FILLER_20_23
*462 FILLER_20_233
*463 FILLER_20_245
*464 FILLER_20_251
*465 FILLER_20_253
*466 FILLER_20_265
*467 FILLER_20_27
*468 FILLER_20_277
*469 FILLER_20_289
*470 FILLER_20_29
*471 FILLER_20_297
*472 FILLER_20_3
*473 FILLER_20_41
*474 FILLER_20_53
*475 FILLER_20_65
*476 FILLER_20_77
*477 FILLER_20_83
*478 FILLER_20_85
*479 FILLER_20_97
*480 FILLER_21_105
*481 FILLER_21_111
*482 FILLER_21_113
*483 FILLER_21_125
*484 FILLER_21_137
*485 FILLER_21_149
*486 FILLER_21_15
*487 FILLER_21_161
*488 FILLER_21_167
*489 FILLER_21_169
*490 FILLER_21_181
*491 FILLER_21_193
*492 FILLER_21_205
*493 FILLER_21_217
*494 FILLER_21_223
*495 FILLER_21_225
*496 FILLER_21_237
*497 FILLER_21_249
*498 FILLER_21_261
*499 FILLER_21_27
*500 FILLER_21_273
*501 FILLER_21_279
*502 FILLER_21_281
*503 FILLER_21_293
*504 FILLER_21_3
*505 FILLER_21_39
*506 FILLER_21_51
*507 FILLER_21_55
*508 FILLER_21_57
*509 FILLER_21_69
*510 FILLER_21_81
*511 FILLER_21_93
*512 FILLER_22_109
*513 FILLER_22_121
*514 FILLER_22_133
*515 FILLER_22_139
*516 FILLER_22_141
*517 FILLER_22_153
*518 FILLER_22_165
*519 FILLER_22_177
*520 FILLER_22_189
*521 FILLER_22_195
*522 FILLER_22_197
*523 FILLER_22_209
*524 FILLER_22_221
*525 FILLER_22_233
*526 FILLER_22_24
*527 FILLER_22_245
*528 FILLER_22_251
*529 FILLER_22_253
*530 FILLER_22_265
*531 FILLER_22_277
*532 FILLER_22_289
*533 FILLER_22_29
*534 FILLER_22_297
*535 FILLER_22_3
*536 FILLER_22_41
*537 FILLER_22_53
*538 FILLER_22_65
*539 FILLER_22_77
*540 FILLER_22_83
*541 FILLER_22_85
*542 FILLER_22_97
*543 FILLER_23_105
*544 FILLER_23_111
*545 FILLER_23_113
*546 FILLER_23_125
*547 FILLER_23_137
*548 FILLER_23_149
*549 FILLER_23_15
*550 FILLER_23_161
*551 FILLER_23_167
*552 FILLER_23_169
*553 FILLER_23_181
*554 FILLER_23_193
*555 FILLER_23_205
*556 FILLER_23_217
*557 FILLER_23_223
*558 FILLER_23_225
*559 FILLER_23_237
*560 FILLER_23_249
*561 FILLER_23_261
*562 FILLER_23_27
*563 FILLER_23_273
*564 FILLER_23_279
*565 FILLER_23_281
*566 FILLER_23_293
*567 FILLER_23_3
*568 FILLER_23_39
*569 FILLER_23_51
*570 FILLER_23_55
*571 FILLER_23_57
*572 FILLER_23_69
*573 FILLER_23_81
*574 FILLER_23_93
*575 FILLER_24_10
*576 FILLER_24_109
*577 FILLER_24_121
*578 FILLER_24_133
*579 FILLER_24_139
*580 FILLER_24_141
*581 FILLER_24_153
*582 FILLER_24_165
*583 FILLER_24_177
*584 FILLER_24_189
*585 FILLER_24_19
*586 FILLER_24_195
*587 FILLER_24_197
*588 FILLER_24_209
*589 FILLER_24_221
*590 FILLER_24_233
*591 FILLER_24_245
*592 FILLER_24_251
*593 FILLER_24_253
*594 FILLER_24_265
*595 FILLER_24_27
*596 FILLER_24_277
*597 FILLER_24_289
*598 FILLER_24_29
*599 FILLER_24_297
*600 FILLER_24_41
*601 FILLER_24_53
*602 FILLER_24_65
*603 FILLER_24_77
*604 FILLER_24_83
*605 FILLER_24_85
*606 FILLER_24_97
*607 FILLER_25_10
*608 FILLER_25_105
*609 FILLER_25_111
*610 FILLER_25_113
*611 FILLER_25_125
*612 FILLER_25_137
*613 FILLER_25_149
*614 FILLER_25_161
*615 FILLER_25_167
*616 FILLER_25_169
*617 FILLER_25_181
*618 FILLER_25_193
*619 FILLER_25_205
*620 FILLER_25_217
*621 FILLER_25_223
*622 FILLER_25_225
*623 FILLER_25_237
*624 FILLER_25_249
*625 FILLER_25_261
*626 FILLER_25_273
*627 FILLER_25_279
*628 FILLER_25_281
*629 FILLER_25_293
*630 FILLER_25_36
*631 FILLER_25_43
*632 FILLER_25_55
*633 FILLER_25_57
*634 FILLER_25_69
*635 FILLER_25_81
*636 FILLER_25_93
*637 FILLER_26_109
*638 FILLER_26_121
*639 FILLER_26_133
*640 FILLER_26_139
*641 FILLER_26_141
*642 FILLER_26_153
*643 FILLER_26_165
*644 FILLER_26_177
*645 FILLER_26_189
*646 FILLER_26_195
*647 FILLER_26_197
*648 FILLER_26_209
*649 FILLER_26_221
*650 FILLER_26_233
*651 FILLER_26_24
*652 FILLER_26_245
*653 FILLER_26_251
*654 FILLER_26_253
*655 FILLER_26_265
*656 FILLER_26_277
*657 FILLER_26_289
*658 FILLER_26_29
*659 FILLER_26_297
*660 FILLER_26_3
*661 FILLER_26_53
*662 FILLER_26_65
*663 FILLER_26_77
*664 FILLER_26_83
*665 FILLER_26_85
*666 FILLER_26_97
*667 FILLER_27_108
*668 FILLER_27_11
*669 FILLER_27_113
*670 FILLER_27_125
*671 FILLER_27_137
*672 FILLER_27_149
*673 FILLER_27_15
*674 FILLER_27_161
*675 FILLER_27_167
*676 FILLER_27_169
*677 FILLER_27_181
*678 FILLER_27_193
*679 FILLER_27_205
*680 FILLER_27_217
*681 FILLER_27_223
*682 FILLER_27_225
*683 FILLER_27_237
*684 FILLER_27_249
*685 FILLER_27_261
*686 FILLER_27_273
*687 FILLER_27_279
*688 FILLER_27_281
*689 FILLER_27_293
*690 FILLER_27_36
*691 FILLER_27_48
*692 FILLER_27_60
*693 FILLER_27_72
*694 FILLER_27_84
*695 FILLER_27_96
*696 FILLER_28_109
*697 FILLER_28_121
*698 FILLER_28_133
*699 FILLER_28_139
*700 FILLER_28_141
*701 FILLER_28_153
*702 FILLER_28_165
*703 FILLER_28_177
*704 FILLER_28_189
*705 FILLER_28_195
*706 FILLER_28_197
*707 FILLER_28_209
*708 FILLER_28_221
*709 FILLER_28_233
*710 FILLER_28_24
*711 FILLER_28_245
*712 FILLER_28_251
*713 FILLER_28_253
*714 FILLER_28_265
*715 FILLER_28_277
*716 FILLER_28_289
*717 FILLER_28_297
*718 FILLER_28_3
*719 FILLER_28_42
*720 FILLER_28_52
*721 FILLER_28_64
*722 FILLER_28_76
*723 FILLER_28_85
*724 FILLER_28_97
*725 FILLER_29_105
*726 FILLER_29_111
*727 FILLER_29_113
*728 FILLER_29_12
*729 FILLER_29_125
*730 FILLER_29_137
*731 FILLER_29_149
*732 FILLER_29_161
*733 FILLER_29_167
*734 FILLER_29_169
*735 FILLER_29_181
*736 FILLER_29_193
*737 FILLER_29_205
*738 FILLER_29_217
*739 FILLER_29_223
*740 FILLER_29_225
*741 FILLER_29_237
*742 FILLER_29_249
*743 FILLER_29_261
*744 FILLER_29_273
*745 FILLER_29_279
*746 FILLER_29_281
*747 FILLER_29_293
*748 FILLER_29_36
*749 FILLER_29_47
*750 FILLER_29_55
*751 FILLER_29_57
*752 FILLER_29_69
*753 FILLER_29_81
*754 FILLER_29_93
*755 FILLER_2_109
*756 FILLER_2_121
*757 FILLER_2_133
*758 FILLER_2_139
*759 FILLER_2_141
*760 FILLER_2_15
*761 FILLER_2_153
*762 FILLER_2_165
*763 FILLER_2_177
*764 FILLER_2_189
*765 FILLER_2_195
*766 FILLER_2_197
*767 FILLER_2_209
*768 FILLER_2_221
*769 FILLER_2_233
*770 FILLER_2_245
*771 FILLER_2_251
*772 FILLER_2_253
*773 FILLER_2_265
*774 FILLER_2_27
*775 FILLER_2_277
*776 FILLER_2_289
*777 FILLER_2_29
*778 FILLER_2_297
*779 FILLER_2_3
*780 FILLER_2_41
*781 FILLER_2_53
*782 FILLER_2_65
*783 FILLER_2_77
*784 FILLER_2_83
*785 FILLER_2_85
*786 FILLER_2_97
*787 FILLER_30_109
*788 FILLER_30_121
*789 FILLER_30_133
*790 FILLER_30_139
*791 FILLER_30_141
*792 FILLER_30_153
*793 FILLER_30_165
*794 FILLER_30_177
*795 FILLER_30_189
*796 FILLER_30_195
*797 FILLER_30_197
*798 FILLER_30_209
*799 FILLER_30_221
*800 FILLER_30_233
*801 FILLER_30_24
*802 FILLER_30_245
*803 FILLER_30_251
*804 FILLER_30_253
*805 FILLER_30_265
*806 FILLER_30_277
*807 FILLER_30_289
*808 FILLER_30_297
*809 FILLER_30_3
*810 FILLER_30_37
*811 FILLER_30_65
*812 FILLER_30_77
*813 FILLER_30_83
*814 FILLER_30_85
*815 FILLER_30_97
*816 FILLER_31_103
*817 FILLER_31_111
*818 FILLER_31_113
*819 FILLER_31_125
*820 FILLER_31_13
*821 FILLER_31_137
*822 FILLER_31_149
*823 FILLER_31_161
*824 FILLER_31_167
*825 FILLER_31_169
*826 FILLER_31_181
*827 FILLER_31_193
*828 FILLER_31_205
*829 FILLER_31_217
*830 FILLER_31_223
*831 FILLER_31_225
*832 FILLER_31_237
*833 FILLER_31_249
*834 FILLER_31_261
*835 FILLER_31_273
*836 FILLER_31_279
*837 FILLER_31_281
*838 FILLER_31_293
*839 FILLER_31_3
*840 FILLER_31_37
*841 FILLER_31_50
*842 FILLER_31_60
*843 FILLER_31_67
*844 FILLER_31_79
*845 FILLER_31_91
*846 FILLER_32_109
*847 FILLER_32_121
*848 FILLER_32_133
*849 FILLER_32_139
*850 FILLER_32_141
*851 FILLER_32_153
*852 FILLER_32_165
*853 FILLER_32_177
*854 FILLER_32_189
*855 FILLER_32_195
*856 FILLER_32_197
*857 FILLER_32_209
*858 FILLER_32_221
*859 FILLER_32_233
*860 FILLER_32_24
*861 FILLER_32_245
*862 FILLER_32_251
*863 FILLER_32_253
*864 FILLER_32_265
*865 FILLER_32_277
*866 FILLER_32_289
*867 FILLER_32_29
*868 FILLER_32_297
*869 FILLER_32_3
*870 FILLER_32_53
*871 FILLER_32_65
*872 FILLER_32_77
*873 FILLER_32_83
*874 FILLER_32_85
*875 FILLER_32_97
*876 FILLER_33_108
*877 FILLER_33_113
*878 FILLER_33_125
*879 FILLER_33_137
*880 FILLER_33_149
*881 FILLER_33_16
*882 FILLER_33_161
*883 FILLER_33_167
*884 FILLER_33_169
*885 FILLER_33_181
*886 FILLER_33_193
*887 FILLER_33_205
*888 FILLER_33_217
*889 FILLER_33_223
*890 FILLER_33_225
*891 FILLER_33_237
*892 FILLER_33_249
*893 FILLER_33_261
*894 FILLER_33_273
*895 FILLER_33_279
*896 FILLER_33_281
*897 FILLER_33_293
*898 FILLER_33_38
*899 FILLER_33_46
*900 FILLER_33_54
*901 FILLER_33_60
*902 FILLER_33_72
*903 FILLER_33_8
*904 FILLER_33_84
*905 FILLER_33_96
*906 FILLER_34_109
*907 FILLER_34_121
*908 FILLER_34_133
*909 FILLER_34_139
*910 FILLER_34_141
*911 FILLER_34_153
*912 FILLER_34_16
*913 FILLER_34_165
*914 FILLER_34_177
*915 FILLER_34_189
*916 FILLER_34_195
*917 FILLER_34_197
*918 FILLER_34_209
*919 FILLER_34_221
*920 FILLER_34_233
*921 FILLER_34_24
*922 FILLER_34_245
*923 FILLER_34_251
*924 FILLER_34_253
*925 FILLER_34_265
*926 FILLER_34_277
*927 FILLER_34_289
*928 FILLER_34_297
*929 FILLER_34_42
*930 FILLER_34_50
*931 FILLER_34_62
*932 FILLER_34_74
*933 FILLER_34_82
*934 FILLER_34_85
*935 FILLER_34_97
*936 FILLER_35_105
*937 FILLER_35_111
*938 FILLER_35_113
*939 FILLER_35_125
*940 FILLER_35_137
*941 FILLER_35_149
*942 FILLER_35_16
*943 FILLER_35_161
*944 FILLER_35_167
*945 FILLER_35_169
*946 FILLER_35_181
*947 FILLER_35_193
*948 FILLER_35_205
*949 FILLER_35_217
*950 FILLER_35_223
*951 FILLER_35_225
*952 FILLER_35_237
*953 FILLER_35_249
*954 FILLER_35_261
*955 FILLER_35_273
*956 FILLER_35_279
*957 FILLER_35_281
*958 FILLER_35_293
*959 FILLER_35_40
*960 FILLER_35_52
*961 FILLER_35_57
*962 FILLER_35_69
*963 FILLER_35_81
*964 FILLER_35_93
*965 FILLER_36_109
*966 FILLER_36_121
*967 FILLER_36_133
*968 FILLER_36_139
*969 FILLER_36_141
*970 FILLER_36_153
*971 FILLER_36_165
*972 FILLER_36_177
*973 FILLER_36_189
*974 FILLER_36_195
*975 FILLER_36_197
*976 FILLER_36_209
*977 FILLER_36_221
*978 FILLER_36_233
*979 FILLER_36_24
*980 FILLER_36_245
*981 FILLER_36_251
*982 FILLER_36_253
*983 FILLER_36_265
*984 FILLER_36_277
*985 FILLER_36_289
*986 FILLER_36_297
*987 FILLER_36_3
*988 FILLER_36_34
*989 FILLER_36_46
*990 FILLER_36_58
*991 FILLER_36_70
*992 FILLER_36_82
*993 FILLER_36_85
*994 FILLER_36_97
*995 FILLER_37_105
*996 FILLER_37_111
*997 FILLER_37_113
*998 FILLER_37_125
*999 FILLER_37_137
*1000 FILLER_37_149
*1001 FILLER_37_16
*1002 FILLER_37_161
*1003 FILLER_37_167
*1004 FILLER_37_169
*1005 FILLER_37_181
*1006 FILLER_37_193
*1007 FILLER_37_205
*1008 FILLER_37_217
*1009 FILLER_37_223
*1010 FILLER_37_225
*1011 FILLER_37_237
*1012 FILLER_37_249
*1013 FILLER_37_261
*1014 FILLER_37_273
*1015 FILLER_37_279
*1016 FILLER_37_28
*1017 FILLER_37_281
*1018 FILLER_37_293
*1019 FILLER_37_40
*1020 FILLER_37_52
*1021 FILLER_37_57
*1022 FILLER_37_69
*1023 FILLER_37_81
*1024 FILLER_37_93
*1025 FILLER_38_109
*1026 FILLER_38_11
*1027 FILLER_38_121
*1028 FILLER_38_133
*1029 FILLER_38_139
*1030 FILLER_38_141
*1031 FILLER_38_153
*1032 FILLER_38_165
*1033 FILLER_38_177
*1034 FILLER_38_189
*1035 FILLER_38_195
*1036 FILLER_38_197
*1037 FILLER_38_209
*1038 FILLER_38_221
*1039 FILLER_38_23
*1040 FILLER_38_233
*1041 FILLER_38_245
*1042 FILLER_38_251
*1043 FILLER_38_253
*1044 FILLER_38_265
*1045 FILLER_38_27
*1046 FILLER_38_277
*1047 FILLER_38_289
*1048 FILLER_38_29
*1049 FILLER_38_297
*1050 FILLER_38_3
*1051 FILLER_38_41
*1052 FILLER_38_53
*1053 FILLER_38_65
*1054 FILLER_38_77
*1055 FILLER_38_83
*1056 FILLER_38_85
*1057 FILLER_38_97
*1058 FILLER_39_105
*1059 FILLER_39_111
*1060 FILLER_39_113
*1061 FILLER_39_125
*1062 FILLER_39_137
*1063 FILLER_39_149
*1064 FILLER_39_15
*1065 FILLER_39_161
*1066 FILLER_39_167
*1067 FILLER_39_169
*1068 FILLER_39_181
*1069 FILLER_39_193
*1070 FILLER_39_205
*1071 FILLER_39_217
*1072 FILLER_39_223
*1073 FILLER_39_225
*1074 FILLER_39_237
*1075 FILLER_39_249
*1076 FILLER_39_261
*1077 FILLER_39_27
*1078 FILLER_39_273
*1079 FILLER_39_279
*1080 FILLER_39_281
*1081 FILLER_39_293
*1082 FILLER_39_39
*1083 FILLER_39_51
*1084 FILLER_39_55
*1085 FILLER_39_57
*1086 FILLER_39_69
*1087 FILLER_39_7
*1088 FILLER_39_81
*1089 FILLER_39_93
*1090 FILLER_3_105
*1091 FILLER_3_111
*1092 FILLER_3_113
*1093 FILLER_3_125
*1094 FILLER_3_137
*1095 FILLER_3_149
*1096 FILLER_3_15
*1097 FILLER_3_161
*1098 FILLER_3_167
*1099 FILLER_3_169
*1100 FILLER_3_181
*1101 FILLER_3_193
*1102 FILLER_3_205
*1103 FILLER_3_217
*1104 FILLER_3_223
*1105 FILLER_3_225
*1106 FILLER_3_237
*1107 FILLER_3_249
*1108 FILLER_3_261
*1109 FILLER_3_27
*1110 FILLER_3_273
*1111 FILLER_3_279
*1112 FILLER_3_281
*1113 FILLER_3_293
*1114 FILLER_3_3
*1115 FILLER_3_39
*1116 FILLER_3_51
*1117 FILLER_3_55
*1118 FILLER_3_57
*1119 FILLER_3_69
*1120 FILLER_3_81
*1121 FILLER_3_93
*1122 FILLER_40_109
*1123 FILLER_40_121
*1124 FILLER_40_133
*1125 FILLER_40_139
*1126 FILLER_40_141
*1127 FILLER_40_153
*1128 FILLER_40_165
*1129 FILLER_40_177
*1130 FILLER_40_189
*1131 FILLER_40_19
*1132 FILLER_40_195
*1133 FILLER_40_197
*1134 FILLER_40_209
*1135 FILLER_40_221
*1136 FILLER_40_233
*1137 FILLER_40_245
*1138 FILLER_40_251
*1139 FILLER_40_253
*1140 FILLER_40_265
*1141 FILLER_40_27
*1142 FILLER_40_277
*1143 FILLER_40_289
*1144 FILLER_40_29
*1145 FILLER_40_297
*1146 FILLER_40_41
*1147 FILLER_40_53
*1148 FILLER_40_65
*1149 FILLER_40_7
*1150 FILLER_40_77
*1151 FILLER_40_83
*1152 FILLER_40_85
*1153 FILLER_40_97
*1154 FILLER_41_105
*1155 FILLER_41_111
*1156 FILLER_41_113
*1157 FILLER_41_125
*1158 FILLER_41_137
*1159 FILLER_41_149
*1160 FILLER_41_161
*1161 FILLER_41_167
*1162 FILLER_41_169
*1163 FILLER_41_181
*1164 FILLER_41_19
*1165 FILLER_41_193
*1166 FILLER_41_205
*1167 FILLER_41_217
*1168 FILLER_41_223
*1169 FILLER_41_225
*1170 FILLER_41_237
*1171 FILLER_41_249
*1172 FILLER_41_261
*1173 FILLER_41_273
*1174 FILLER_41_279
*1175 FILLER_41_281
*1176 FILLER_41_293
*1177 FILLER_41_31
*1178 FILLER_41_43
*1179 FILLER_41_55
*1180 FILLER_41_57
*1181 FILLER_41_69
*1182 FILLER_41_7
*1183 FILLER_41_81
*1184 FILLER_41_93
*1185 FILLER_42_109
*1186 FILLER_42_121
*1187 FILLER_42_133
*1188 FILLER_42_139
*1189 FILLER_42_141
*1190 FILLER_42_153
*1191 FILLER_42_165
*1192 FILLER_42_177
*1193 FILLER_42_189
*1194 FILLER_42_19
*1195 FILLER_42_195
*1196 FILLER_42_197
*1197 FILLER_42_209
*1198 FILLER_42_221
*1199 FILLER_42_233
*1200 FILLER_42_245
*1201 FILLER_42_251
*1202 FILLER_42_253
*1203 FILLER_42_265
*1204 FILLER_42_27
*1205 FILLER_42_277
*1206 FILLER_42_289
*1207 FILLER_42_29
*1208 FILLER_42_297
*1209 FILLER_42_41
*1210 FILLER_42_53
*1211 FILLER_42_65
*1212 FILLER_42_7
*1213 FILLER_42_77
*1214 FILLER_42_83
*1215 FILLER_42_85
*1216 FILLER_42_97
*1217 FILLER_43_105
*1218 FILLER_43_111
*1219 FILLER_43_113
*1220 FILLER_43_125
*1221 FILLER_43_137
*1222 FILLER_43_149
*1223 FILLER_43_15
*1224 FILLER_43_161
*1225 FILLER_43_167
*1226 FILLER_43_169
*1227 FILLER_43_181
*1228 FILLER_43_193
*1229 FILLER_43_205
*1230 FILLER_43_217
*1231 FILLER_43_223
*1232 FILLER_43_225
*1233 FILLER_43_237
*1234 FILLER_43_249
*1235 FILLER_43_261
*1236 FILLER_43_27
*1237 FILLER_43_273
*1238 FILLER_43_279
*1239 FILLER_43_281
*1240 FILLER_43_293
*1241 FILLER_43_3
*1242 FILLER_43_39
*1243 FILLER_43_51
*1244 FILLER_43_55
*1245 FILLER_43_57
*1246 FILLER_43_69
*1247 FILLER_43_81
*1248 FILLER_43_93
*1249 FILLER_44_109
*1250 FILLER_44_121
*1251 FILLER_44_133
*1252 FILLER_44_139
*1253 FILLER_44_141
*1254 FILLER_44_15
*1255 FILLER_44_153
*1256 FILLER_44_165
*1257 FILLER_44_177
*1258 FILLER_44_189
*1259 FILLER_44_195
*1260 FILLER_44_197
*1261 FILLER_44_209
*1262 FILLER_44_221
*1263 FILLER_44_233
*1264 FILLER_44_245
*1265 FILLER_44_251
*1266 FILLER_44_253
*1267 FILLER_44_265
*1268 FILLER_44_27
*1269 FILLER_44_277
*1270 FILLER_44_289
*1271 FILLER_44_29
*1272 FILLER_44_297
*1273 FILLER_44_3
*1274 FILLER_44_41
*1275 FILLER_44_53
*1276 FILLER_44_65
*1277 FILLER_44_77
*1278 FILLER_44_83
*1279 FILLER_44_85
*1280 FILLER_44_97
*1281 FILLER_45_105
*1282 FILLER_45_111
*1283 FILLER_45_113
*1284 FILLER_45_125
*1285 FILLER_45_137
*1286 FILLER_45_149
*1287 FILLER_45_15
*1288 FILLER_45_161
*1289 FILLER_45_167
*1290 FILLER_45_169
*1291 FILLER_45_181
*1292 FILLER_45_193
*1293 FILLER_45_205
*1294 FILLER_45_217
*1295 FILLER_45_223
*1296 FILLER_45_225
*1297 FILLER_45_237
*1298 FILLER_45_249
*1299 FILLER_45_261
*1300 FILLER_45_27
*1301 FILLER_45_273
*1302 FILLER_45_279
*1303 FILLER_45_281
*1304 FILLER_45_293
*1305 FILLER_45_3
*1306 FILLER_45_39
*1307 FILLER_45_51
*1308 FILLER_45_55
*1309 FILLER_45_57
*1310 FILLER_45_69
*1311 FILLER_45_81
*1312 FILLER_45_93
*1313 FILLER_46_109
*1314 FILLER_46_121
*1315 FILLER_46_133
*1316 FILLER_46_139
*1317 FILLER_46_141
*1318 FILLER_46_15
*1319 FILLER_46_153
*1320 FILLER_46_165
*1321 FILLER_46_177
*1322 FILLER_46_189
*1323 FILLER_46_195
*1324 FILLER_46_197
*1325 FILLER_46_209
*1326 FILLER_46_221
*1327 FILLER_46_233
*1328 FILLER_46_245
*1329 FILLER_46_251
*1330 FILLER_46_253
*1331 FILLER_46_265
*1332 FILLER_46_27
*1333 FILLER_46_277
*1334 FILLER_46_289
*1335 FILLER_46_29
*1336 FILLER_46_297
*1337 FILLER_46_3
*1338 FILLER_46_41
*1339 FILLER_46_53
*1340 FILLER_46_65
*1341 FILLER_46_77
*1342 FILLER_46_83
*1343 FILLER_46_85
*1344 FILLER_46_97
*1345 FILLER_47_105
*1346 FILLER_47_111
*1347 FILLER_47_113
*1348 FILLER_47_125
*1349 FILLER_47_137
*1350 FILLER_47_149
*1351 FILLER_47_15
*1352 FILLER_47_161
*1353 FILLER_47_167
*1354 FILLER_47_169
*1355 FILLER_47_181
*1356 FILLER_47_193
*1357 FILLER_47_205
*1358 FILLER_47_217
*1359 FILLER_47_223
*1360 FILLER_47_225
*1361 FILLER_47_237
*1362 FILLER_47_249
*1363 FILLER_47_261
*1364 FILLER_47_27
*1365 FILLER_47_273
*1366 FILLER_47_279
*1367 FILLER_47_281
*1368 FILLER_47_293
*1369 FILLER_47_3
*1370 FILLER_47_39
*1371 FILLER_47_51
*1372 FILLER_47_55
*1373 FILLER_47_57
*1374 FILLER_47_69
*1375 FILLER_47_81
*1376 FILLER_47_93
*1377 FILLER_48_109
*1378 FILLER_48_121
*1379 FILLER_48_133
*1380 FILLER_48_139
*1381 FILLER_48_141
*1382 FILLER_48_15
*1383 FILLER_48_153
*1384 FILLER_48_165
*1385 FILLER_48_177
*1386 FILLER_48_189
*1387 FILLER_48_195
*1388 FILLER_48_197
*1389 FILLER_48_209
*1390 FILLER_48_221
*1391 FILLER_48_233
*1392 FILLER_48_245
*1393 FILLER_48_251
*1394 FILLER_48_253
*1395 FILLER_48_265
*1396 FILLER_48_27
*1397 FILLER_48_277
*1398 FILLER_48_289
*1399 FILLER_48_29
*1400 FILLER_48_297
*1401 FILLER_48_3
*1402 FILLER_48_41
*1403 FILLER_48_53
*1404 FILLER_48_65
*1405 FILLER_48_77
*1406 FILLER_48_83
*1407 FILLER_48_85
*1408 FILLER_48_97
*1409 FILLER_49_105
*1410 FILLER_49_111
*1411 FILLER_49_113
*1412 FILLER_49_125
*1413 FILLER_49_137
*1414 FILLER_49_149
*1415 FILLER_49_15
*1416 FILLER_49_161
*1417 FILLER_49_167
*1418 FILLER_49_169
*1419 FILLER_49_181
*1420 FILLER_49_193
*1421 FILLER_49_205
*1422 FILLER_49_217
*1423 FILLER_49_223
*1424 FILLER_49_225
*1425 FILLER_49_237
*1426 FILLER_49_249
*1427 FILLER_49_261
*1428 FILLER_49_27
*1429 FILLER_49_273
*1430 FILLER_49_279
*1431 FILLER_49_281
*1432 FILLER_49_293
*1433 FILLER_49_3
*1434 FILLER_49_39
*1435 FILLER_49_51
*1436 FILLER_49_55
*1437 FILLER_49_57
*1438 FILLER_49_69
*1439 FILLER_49_81
*1440 FILLER_49_93
*1441 FILLER_4_109
*1442 FILLER_4_121
*1443 FILLER_4_133
*1444 FILLER_4_139
*1445 FILLER_4_141
*1446 FILLER_4_15
*1447 FILLER_4_153
*1448 FILLER_4_165
*1449 FILLER_4_177
*1450 FILLER_4_189
*1451 FILLER_4_195
*1452 FILLER_4_197
*1453 FILLER_4_209
*1454 FILLER_4_221
*1455 FILLER_4_233
*1456 FILLER_4_245
*1457 FILLER_4_251
*1458 FILLER_4_253
*1459 FILLER_4_265
*1460 FILLER_4_27
*1461 FILLER_4_277
*1462 FILLER_4_289
*1463 FILLER_4_29
*1464 FILLER_4_297
*1465 FILLER_4_3
*1466 FILLER_4_41
*1467 FILLER_4_53
*1468 FILLER_4_65
*1469 FILLER_4_77
*1470 FILLER_4_83
*1471 FILLER_4_85
*1472 FILLER_4_97
*1473 FILLER_50_109
*1474 FILLER_50_121
*1475 FILLER_50_133
*1476 FILLER_50_139
*1477 FILLER_50_141
*1478 FILLER_50_15
*1479 FILLER_50_153
*1480 FILLER_50_165
*1481 FILLER_50_177
*1482 FILLER_50_189
*1483 FILLER_50_195
*1484 FILLER_50_197
*1485 FILLER_50_209
*1486 FILLER_50_221
*1487 FILLER_50_233
*1488 FILLER_50_245
*1489 FILLER_50_251
*1490 FILLER_50_253
*1491 FILLER_50_265
*1492 FILLER_50_27
*1493 FILLER_50_277
*1494 FILLER_50_289
*1495 FILLER_50_29
*1496 FILLER_50_297
*1497 FILLER_50_3
*1498 FILLER_50_41
*1499 FILLER_50_53
*1500 FILLER_50_65
*1501 FILLER_50_77
*1502 FILLER_50_83
*1503 FILLER_50_85
*1504 FILLER_50_97
*1505 FILLER_51_105
*1506 FILLER_51_111
*1507 FILLER_51_113
*1508 FILLER_51_125
*1509 FILLER_51_137
*1510 FILLER_51_149
*1511 FILLER_51_15
*1512 FILLER_51_161
*1513 FILLER_51_167
*1514 FILLER_51_169
*1515 FILLER_51_181
*1516 FILLER_51_193
*1517 FILLER_51_205
*1518 FILLER_51_217
*1519 FILLER_51_223
*1520 FILLER_51_225
*1521 FILLER_51_237
*1522 FILLER_51_249
*1523 FILLER_51_261
*1524 FILLER_51_27
*1525 FILLER_51_273
*1526 FILLER_51_279
*1527 FILLER_51_281
*1528 FILLER_51_293
*1529 FILLER_51_3
*1530 FILLER_51_39
*1531 FILLER_51_51
*1532 FILLER_51_55
*1533 FILLER_51_57
*1534 FILLER_51_69
*1535 FILLER_51_81
*1536 FILLER_51_93
*1537 FILLER_52_109
*1538 FILLER_52_121
*1539 FILLER_52_133
*1540 FILLER_52_139
*1541 FILLER_52_141
*1542 FILLER_52_15
*1543 FILLER_52_153
*1544 FILLER_52_165
*1545 FILLER_52_177
*1546 FILLER_52_189
*1547 FILLER_52_195
*1548 FILLER_52_197
*1549 FILLER_52_209
*1550 FILLER_52_221
*1551 FILLER_52_233
*1552 FILLER_52_245
*1553 FILLER_52_251
*1554 FILLER_52_253
*1555 FILLER_52_265
*1556 FILLER_52_27
*1557 FILLER_52_277
*1558 FILLER_52_289
*1559 FILLER_52_29
*1560 FILLER_52_297
*1561 FILLER_52_3
*1562 FILLER_52_41
*1563 FILLER_52_53
*1564 FILLER_52_65
*1565 FILLER_52_77
*1566 FILLER_52_83
*1567 FILLER_52_85
*1568 FILLER_52_97
*1569 FILLER_53_105
*1570 FILLER_53_111
*1571 FILLER_53_113
*1572 FILLER_53_125
*1573 FILLER_53_137
*1574 FILLER_53_149
*1575 FILLER_53_15
*1576 FILLER_53_161
*1577 FILLER_53_167
*1578 FILLER_53_169
*1579 FILLER_53_181
*1580 FILLER_53_193
*1581 FILLER_53_205
*1582 FILLER_53_217
*1583 FILLER_53_223