*SPEF "ieee 1481-1999"
*DESIGN "user_module_349803790984020562"
*DATE "11:11:11 Fri 11 11, 1111"
*VENDOR "OpenRCX"
*PROGRAM "Parallel Extraction"
*VERSION "1.0"
*DESIGN_FLOW "NAME_SCOPE LOCAL" "PIN_CAP NONE"
*DIVIDER /
*DELIMITER :
*BUS_DELIMITER []
*T_UNIT 1 NS
*C_UNIT 1 PF
*R_UNIT 1 OHM
*L_UNIT 1 HENRY

*NAME_MAP
*1 io_in[0]
*2 io_in[1]
*3 io_in[2]
*4 io_in[3]
*5 io_in[4]
*6 io_in[5]
*7 io_in[6]
*8 io_in[7]
*9 net3
*10 net4
*11 net5
*12 net6
*13 net7
*14 net8
*15 net1
*16 net2
*17 FILLER_0_109
*18 FILLER_0_113
*19 FILLER_0_125
*20 FILLER_0_137
*21 FILLER_0_141
*22 FILLER_0_15
*23 FILLER_0_153
*24 FILLER_0_165
*25 FILLER_0_169
*26 FILLER_0_181
*27 FILLER_0_193
*28 FILLER_0_197
*29 FILLER_0_209
*30 FILLER_0_221
*31 FILLER_0_225
*32 FILLER_0_237
*33 FILLER_0_249
*34 FILLER_0_253
*35 FILLER_0_265
*36 FILLER_0_27
*37 FILLER_0_277
*38 FILLER_0_281
*39 FILLER_0_29
*40 FILLER_0_293
*41 FILLER_0_3
*42 FILLER_0_41
*43 FILLER_0_53
*44 FILLER_0_57
*45 FILLER_0_69
*46 FILLER_0_81
*47 FILLER_0_85
*48 FILLER_0_97
*49 FILLER_10_109
*50 FILLER_10_121
*51 FILLER_10_133
*52 FILLER_10_139
*53 FILLER_10_141
*54 FILLER_10_15
*55 FILLER_10_153
*56 FILLER_10_165
*57 FILLER_10_177
*58 FILLER_10_189
*59 FILLER_10_195
*60 FILLER_10_197
*61 FILLER_10_209
*62 FILLER_10_221
*63 FILLER_10_233
*64 FILLER_10_245
*65 FILLER_10_251
*66 FILLER_10_253
*67 FILLER_10_265
*68 FILLER_10_27
*69 FILLER_10_277
*70 FILLER_10_289
*71 FILLER_10_29
*72 FILLER_10_297
*73 FILLER_10_3
*74 FILLER_10_41
*75 FILLER_10_53
*76 FILLER_10_65
*77 FILLER_10_77
*78 FILLER_10_83
*79 FILLER_10_85
*80 FILLER_10_97
*81 FILLER_11_105
*82 FILLER_11_111
*83 FILLER_11_113
*84 FILLER_11_125
*85 FILLER_11_137
*86 FILLER_11_149
*87 FILLER_11_15
*88 FILLER_11_161
*89 FILLER_11_167
*90 FILLER_11_169
*91 FILLER_11_181
*92 FILLER_11_193
*93 FILLER_11_205
*94 FILLER_11_217
*95 FILLER_11_223
*96 FILLER_11_225
*97 FILLER_11_237
*98 FILLER_11_249
*99 FILLER_11_261
*100 FILLER_11_27
*101 FILLER_11_273
*102 FILLER_11_279
*103 FILLER_11_281
*104 FILLER_11_293
*105 FILLER_11_3
*106 FILLER_11_39
*107 FILLER_11_51
*108 FILLER_11_55
*109 FILLER_11_57
*110 FILLER_11_69
*111 FILLER_11_81
*112 FILLER_11_93
*113 FILLER_12_109
*114 FILLER_12_121
*115 FILLER_12_133
*116 FILLER_12_139
*117 FILLER_12_141
*118 FILLER_12_15
*119 FILLER_12_153
*120 FILLER_12_165
*121 FILLER_12_177
*122 FILLER_12_189
*123 FILLER_12_195
*124 FILLER_12_197
*125 FILLER_12_209
*126 FILLER_12_221
*127 FILLER_12_233
*128 FILLER_12_245
*129 FILLER_12_251
*130 FILLER_12_253
*131 FILLER_12_265
*132 FILLER_12_27
*133 FILLER_12_277
*134 FILLER_12_289
*135 FILLER_12_29
*136 FILLER_12_297
*137 FILLER_12_3
*138 FILLER_12_41
*139 FILLER_12_53
*140 FILLER_12_65
*141 FILLER_12_77
*142 FILLER_12_83
*143 FILLER_12_85
*144 FILLER_12_97
*145 FILLER_13_105
*146 FILLER_13_111
*147 FILLER_13_113
*148 FILLER_13_125
*149 FILLER_13_137
*150 FILLER_13_149
*151 FILLER_13_15
*152 FILLER_13_161
*153 FILLER_13_167
*154 FILLER_13_169
*155 FILLER_13_181
*156 FILLER_13_193
*157 FILLER_13_205
*158 FILLER_13_217
*159 FILLER_13_223
*160 FILLER_13_225
*161 FILLER_13_237
*162 FILLER_13_249
*163 FILLER_13_261
*164 FILLER_13_27
*165 FILLER_13_273
*166 FILLER_13_279
*167 FILLER_13_281
*168 FILLER_13_293
*169 FILLER_13_3
*170 FILLER_13_39
*171 FILLER_13_51
*172 FILLER_13_55
*173 FILLER_13_57
*174 FILLER_13_69
*175 FILLER_13_81
*176 FILLER_13_93
*177 FILLER_14_109
*178 FILLER_14_121
*179 FILLER_14_133
*180 FILLER_14_139
*181 FILLER_14_141
*182 FILLER_14_15
*183 FILLER_14_153
*184 FILLER_14_165
*185 FILLER_14_177
*186 FILLER_14_189
*187 FILLER_14_195
*188 FILLER_14_197
*189 FILLER_14_209
*190 FILLER_14_221
*191 FILLER_14_233
*192 FILLER_14_245
*193 FILLER_14_251
*194 FILLER_14_253
*195 FILLER_14_265
*196 FILLER_14_27
*197 FILLER_14_277
*198 FILLER_14_289
*199 FILLER_14_29
*200 FILLER_14_297
*201 FILLER_14_3
*202 FILLER_14_41
*203 FILLER_14_53
*204 FILLER_14_65
*205 FILLER_14_77
*206 FILLER_14_83
*207 FILLER_14_85
*208 FILLER_14_97
*209 FILLER_15_105
*210 FILLER_15_111
*211 FILLER_15_113
*212 FILLER_15_125
*213 FILLER_15_137
*214 FILLER_15_149
*215 FILLER_15_15
*216 FILLER_15_161
*217 FILLER_15_167
*218 FILLER_15_169
*219 FILLER_15_181
*220 FILLER_15_193
*221 FILLER_15_205
*222 FILLER_15_217
*223 FILLER_15_223
*224 FILLER_15_225
*225 FILLER_15_237
*226 FILLER_15_249
*227 FILLER_15_261
*228 FILLER_15_27
*229 FILLER_15_273
*230 FILLER_15_279
*231 FILLER_15_281
*232 FILLER_15_293
*233 FILLER_15_3
*234 FILLER_15_39
*235 FILLER_15_51
*236 FILLER_15_55
*237 FILLER_15_57
*238 FILLER_15_69
*239 FILLER_15_81
*240 FILLER_15_93
*241 FILLER_16_109
*242 FILLER_16_121
*243 FILLER_16_133
*244 FILLER_16_139
*245 FILLER_16_141
*246 FILLER_16_15
*247 FILLER_16_153
*248 FILLER_16_165
*249 FILLER_16_177
*250 FILLER_16_189
*251 FILLER_16_195
*252 FILLER_16_197
*253 FILLER_16_209
*254 FILLER_16_221
*255 FILLER_16_233
*256 FILLER_16_245
*257 FILLER_16_251
*258 FILLER_16_253
*259 FILLER_16_265
*260 FILLER_16_27
*261 FILLER_16_277
*262 FILLER_16_289
*263 FILLER_16_29
*264 FILLER_16_297
*265 FILLER_16_3
*266 FILLER_16_41
*267 FILLER_16_53
*268 FILLER_16_65
*269 FILLER_16_77
*270 FILLER_16_83
*271 FILLER_16_85
*272 FILLER_16_97
*273 FILLER_17_105
*274 FILLER_17_111
*275 FILLER_17_113
*276 FILLER_17_125
*277 FILLER_17_137
*278 FILLER_17_149
*279 FILLER_17_15
*280 FILLER_17_161
*281 FILLER_17_167
*282 FILLER_17_169
*283 FILLER_17_181
*284 FILLER_17_193
*285 FILLER_17_205
*286 FILLER_17_217
*287 FILLER_17_223
*288 FILLER_17_225
*289 FILLER_17_237
*290 FILLER_17_249
*291 FILLER_17_261
*292 FILLER_17_27
*293 FILLER_17_273
*294 FILLER_17_279
*295 FILLER_17_281
*296 FILLER_17_293
*297 FILLER_17_3
*298 FILLER_17_39
*299 FILLER_17_51
*300 FILLER_17_55
*301 FILLER_17_57
*302 FILLER_17_69
*303 FILLER_17_81
*304 FILLER_17_93
*305 FILLER_18_109
*306 FILLER_18_121
*307 FILLER_18_133
*308 FILLER_18_139
*309 FILLER_18_141
*310 FILLER_18_15
*311 FILLER_18_153
*312 FILLER_18_165
*313 FILLER_18_177
*314 FILLER_18_189
*315 FILLER_18_195
*316 FILLER_18_197
*317 FILLER_18_209
*318 FILLER_18_221
*319 FILLER_18_233
*320 FILLER_18_245
*321 FILLER_18_251
*322 FILLER_18_253
*323 FILLER_18_265
*324 FILLER_18_27
*325 FILLER_18_277
*326 FILLER_18_289
*327 FILLER_18_29
*328 FILLER_18_297
*329 FILLER_18_3
*330 FILLER_18_41
*331 FILLER_18_53
*332 FILLER_18_65
*333 FILLER_18_77
*334 FILLER_18_83
*335 FILLER_18_85
*336 FILLER_18_97
*337 FILLER_19_105
*338 FILLER_19_111
*339 FILLER_19_113
*340 FILLER_19_125
*341 FILLER_19_137
*342 FILLER_19_149
*343 FILLER_19_15
*344 FILLER_19_161
*345 FILLER_19_167
*346 FILLER_19_169
*347 FILLER_19_181
*348 FILLER_19_193
*349 FILLER_19_205
*350 FILLER_19_217
*351 FILLER_19_223
*352 FILLER_19_225
*353 FILLER_19_237
*354 FILLER_19_249
*355 FILLER_19_261
*356 FILLER_19_27
*357 FILLER_19_273
*358 FILLER_19_279
*359 FILLER_19_281
*360 FILLER_19_293
*361 FILLER_19_3
*362 FILLER_19_39
*363 FILLER_19_51
*364 FILLER_19_55
*365 FILLER_19_57
*366 FILLER_19_69
*367 FILLER_19_81
*368 FILLER_19_93
*369 FILLER_1_105
*370 FILLER_1_111
*371 FILLER_1_113
*372 FILLER_1_125
*373 FILLER_1_137
*374 FILLER_1_149
*375 FILLER_1_15
*376 FILLER_1_161
*377 FILLER_1_167
*378 FILLER_1_169
*379 FILLER_1_181
*380 FILLER_1_193
*381 FILLER_1_205
*382 FILLER_1_217
*383 FILLER_1_223
*384 FILLER_1_225
*385 FILLER_1_237
*386 FILLER_1_249
*387 FILLER_1_261
*388 FILLER_1_27
*389 FILLER_1_273
*390 FILLER_1_279
*391 FILLER_1_281
*392 FILLER_1_293
*393 FILLER_1_3
*394 FILLER_1_39
*395 FILLER_1_51
*396 FILLER_1_55
*397 FILLER_1_57
*398 FILLER_1_69
*399 FILLER_1_81
*400 FILLER_1_93
*401 FILLER_20_109
*402 FILLER_20_121
*403 FILLER_20_133
*404 FILLER_20_139
*405 FILLER_20_141
*406 FILLER_20_15
*407 FILLER_20_153
*408 FILLER_20_165
*409 FILLER_20_177
*410 FILLER_20_189
*411 FILLER_20_195
*412 FILLER_20_197
*413 FILLER_20_209
*414 FILLER_20_221
*415 FILLER_20_233
*416 FILLER_20_245
*417 FILLER_20_251
*418 FILLER_20_253
*419 FILLER_20_265
*420 FILLER_20_27
*421 FILLER_20_277
*422 FILLER_20_289
*423 FILLER_20_29
*424 FILLER_20_297
*425 FILLER_20_3
*426 FILLER_20_41
*427 FILLER_20_53
*428 FILLER_20_65
*429 FILLER_20_77
*430 FILLER_20_83
*431 FILLER_20_85
*432 FILLER_20_97
*433 FILLER_21_105
*434 FILLER_21_111
*435 FILLER_21_113
*436 FILLER_21_125
*437 FILLER_21_137
*438 FILLER_21_149
*439 FILLER_21_15
*440 FILLER_21_161
*441 FILLER_21_167
*442 FILLER_21_169
*443 FILLER_21_181
*444 FILLER_21_193
*445 FILLER_21_205
*446 FILLER_21_217
*447 FILLER_21_223
*448 FILLER_21_225
*449 FILLER_21_237
*450 FILLER_21_249
*451 FILLER_21_261
*452 FILLER_21_27
*453 FILLER_21_273
*454 FILLER_21_279
*455 FILLER_21_281
*456 FILLER_21_293
*457 FILLER_21_3
*458 FILLER_21_39
*459 FILLER_21_51
*460 FILLER_21_55
*461 FILLER_21_57
*462 FILLER_21_69
*463 FILLER_21_81
*464 FILLER_21_93
*465 FILLER_22_109
*466 FILLER_22_121
*467 FILLER_22_133
*468 FILLER_22_139
*469 FILLER_22_141
*470 FILLER_22_15
*471 FILLER_22_153
*472 FILLER_22_165
*473 FILLER_22_177
*474 FILLER_22_189
*475 FILLER_22_195
*476 FILLER_22_197
*477 FILLER_22_209
*478 FILLER_22_221
*479 FILLER_22_233
*480 FILLER_22_245
*481 FILLER_22_251
*482 FILLER_22_253
*483 FILLER_22_265
*484 FILLER_22_27
*485 FILLER_22_277
*486 FILLER_22_289
*487 FILLER_22_29
*488 FILLER_22_297
*489 FILLER_22_3
*490 FILLER_22_41
*491 FILLER_22_53
*492 FILLER_22_65
*493 FILLER_22_77
*494 FILLER_22_83
*495 FILLER_22_85
*496 FILLER_22_97
*497 FILLER_23_105
*498 FILLER_23_111
*499 FILLER_23_113
*500 FILLER_23_125
*501 FILLER_23_137
*502 FILLER_23_149
*503 FILLER_23_15
*504 FILLER_23_161
*505 FILLER_23_167
*506 FILLER_23_169
*507 FILLER_23_181
*508 FILLER_23_193
*509 FILLER_23_205
*510 FILLER_23_217
*511 FILLER_23_223
*512 FILLER_23_225
*513 FILLER_23_237
*514 FILLER_23_249
*515 FILLER_23_261
*516 FILLER_23_27
*517 FILLER_23_273
*518 FILLER_23_279
*519 FILLER_23_281
*520 FILLER_23_293
*521 FILLER_23_3
*522 FILLER_23_39
*523 FILLER_23_51
*524 FILLER_23_55
*525 FILLER_23_57
*526 FILLER_23_69
*527 FILLER_23_81
*528 FILLER_23_93
*529 FILLER_24_109
*530 FILLER_24_121
*531 FILLER_24_133
*532 FILLER_24_139
*533 FILLER_24_141
*534 FILLER_24_15
*535 FILLER_24_153
*536 FILLER_24_165
*537 FILLER_24_177
*538 FILLER_24_189
*539 FILLER_24_195
*540 FILLER_24_197
*541 FILLER_24_209
*542 FILLER_24_221
*543 FILLER_24_233
*544 FILLER_24_245
*545 FILLER_24_251
*546 FILLER_24_253
*547 FILLER_24_265
*548 FILLER_24_27
*549 FILLER_24_277
*550 FILLER_24_289
*551 FILLER_24_29
*552 FILLER_24_297
*553 FILLER_24_3
*554 FILLER_24_41
*555 FILLER_24_53
*556 FILLER_24_65
*557 FILLER_24_77
*558 FILLER_24_83
*559 FILLER_24_85
*560 FILLER_24_97
*561 FILLER_25_105
*562 FILLER_25_111
*563 FILLER_25_113
*564 FILLER_25_125
*565 FILLER_25_137
*566 FILLER_25_149
*567 FILLER_25_15
*568 FILLER_25_161
*569 FILLER_25_167
*570 FILLER_25_169
*571 FILLER_25_181
*572 FILLER_25_193
*573 FILLER_25_205
*574 FILLER_25_217
*575 FILLER_25_223
*576 FILLER_25_225
*577 FILLER_25_237
*578 FILLER_25_249
*579 FILLER_25_261
*580 FILLER_25_27
*581 FILLER_25_273
*582 FILLER_25_279
*583 FILLER_25_281
*584 FILLER_25_293
*585 FILLER_25_3
*586 FILLER_25_39
*587 FILLER_25_51
*588 FILLER_25_55
*589 FILLER_25_57
*590 FILLER_25_69
*591 FILLER_25_81
*592 FILLER_25_93
*593 FILLER_26_109
*594 FILLER_26_121
*595 FILLER_26_133
*596 FILLER_26_139
*597 FILLER_26_141
*598 FILLER_26_15
*599 FILLER_26_153
*600 FILLER_26_165
*601 FILLER_26_177
*602 FILLER_26_189
*603 FILLER_26_195
*604 FILLER_26_197
*605 FILLER_26_209
*606 FILLER_26_221
*607 FILLER_26_233
*608 FILLER_26_245
*609 FILLER_26_251
*610 FILLER_26_253
*611 FILLER_26_265
*612 FILLER_26_27
*613 FILLER_26_277
*614 FILLER_26_289
*615 FILLER_26_29
*616 FILLER_26_297
*617 FILLER_26_3
*618 FILLER_26_41
*619 FILLER_26_53
*620 FILLER_26_65
*621 FILLER_26_77
*622 FILLER_26_83
*623 FILLER_26_85
*624 FILLER_26_97
*625 FILLER_27_105
*626 FILLER_27_111
*627 FILLER_27_113
*628 FILLER_27_125
*629 FILLER_27_137
*630 FILLER_27_149
*631 FILLER_27_15
*632 FILLER_27_161
*633 FILLER_27_167
*634 FILLER_27_169
*635 FILLER_27_181
*636 FILLER_27_193
*637 FILLER_27_205
*638 FILLER_27_217
*639 FILLER_27_223
*640 FILLER_27_225
*641 FILLER_27_237
*642 FILLER_27_249
*643 FILLER_27_261
*644 FILLER_27_27
*645 FILLER_27_273
*646 FILLER_27_279
*647 FILLER_27_281
*648 FILLER_27_293
*649 FILLER_27_3
*650 FILLER_27_39
*651 FILLER_27_51
*652 FILLER_27_55
*653 FILLER_27_57
*654 FILLER_27_69
*655 FILLER_27_81
*656 FILLER_27_93
*657 FILLER_28_109
*658 FILLER_28_121
*659 FILLER_28_133
*660 FILLER_28_139
*661 FILLER_28_141
*662 FILLER_28_15
*663 FILLER_28_153
*664 FILLER_28_165
*665 FILLER_28_177
*666 FILLER_28_189
*667 FILLER_28_195
*668 FILLER_28_197
*669 FILLER_28_209
*670 FILLER_28_221
*671 FILLER_28_233
*672 FILLER_28_245
*673 FILLER_28_251
*674 FILLER_28_253
*675 FILLER_28_265
*676 FILLER_28_27
*677 FILLER_28_277
*678 FILLER_28_289
*679 FILLER_28_29
*680 FILLER_28_297
*681 FILLER_28_3
*682 FILLER_28_41
*683 FILLER_28_53
*684 FILLER_28_65
*685 FILLER_28_77
*686 FILLER_28_83
*687 FILLER_28_85
*688 FILLER_28_97
*689 FILLER_29_105
*690 FILLER_29_111
*691 FILLER_29_113
*692 FILLER_29_125
*693 FILLER_29_137
*694 FILLER_29_149
*695 FILLER_29_15
*696 FILLER_29_161
*697 FILLER_29_167
*698 FILLER_29_169
*699 FILLER_29_181
*700 FILLER_29_193
*701 FILLER_29_205
*702 FILLER_29_217
*703 FILLER_29_223
*704 FILLER_29_225
*705 FILLER_29_237
*706 FILLER_29_249
*707 FILLER_29_261
*708 FILLER_29_27
*709 FILLER_29_273
*710 FILLER_29_279
*711 FILLER_29_281
*712 FILLER_29_293
*713 FILLER_29_3
*714 FILLER_29_39
*715 FILLER_29_51
*716 FILLER_29_55
*717 FILLER_29_57
*718 FILLER_29_69
*719 FILLER_29_81
*720 FILLER_29_93
*721 FILLER_2_109
*722 FILLER_2_121
*723 FILLER_2_133
*724 FILLER_2_139
*725 FILLER_2_141
*726 FILLER_2_15
*727 FILLER_2_153
*728 FILLER_2_165
*729 FILLER_2_177
*730 FILLER_2_189
*731 FILLER_2_195
*732 FILLER_2_197
*733 FILLER_2_209
*734 FILLER_2_221
*735 FILLER_2_233
*736 FILLER_2_245
*737 FILLER_2_251
*738 FILLER_2_253
*739 FILLER_2_265
*740 FILLER_2_27
*741 FILLER_2_277
*742 FILLER_2_289
*743 FILLER_2_29
*744 FILLER_2_297
*745 FILLER_2_3
*746 FILLER_2_41
*747 FILLER_2_53
*748 FILLER_2_65
*749 FILLER_2_77
*750 FILLER_2_83
*751 FILLER_2_85
*752 FILLER_2_97
*753 FILLER_30_109
*754 FILLER_30_121
*755 FILLER_30_133
*756 FILLER_30_139
*757 FILLER_30_141
*758 FILLER_30_15
*759 FILLER_30_153
*760 FILLER_30_165
*761 FILLER_30_177
*762 FILLER_30_189
*763 FILLER_30_195
*764 FILLER_30_197
*765 FILLER_30_209
*766 FILLER_30_221
*767 FILLER_30_233
*768 FILLER_30_245
*769 FILLER_30_251
*770 FILLER_30_253
*771 FILLER_30_265
*772 FILLER_30_27
*773 FILLER_30_277
*774 FILLER_30_289
*775 FILLER_30_29
*776 FILLER_30_297
*777 FILLER_30_3
*778 FILLER_30_41
*779 FILLER_30_53
*780 FILLER_30_65
*781 FILLER_30_77
*782 FILLER_30_83
*783 FILLER_30_85
*784 FILLER_30_97
*785 FILLER_31_105
*786 FILLER_31_111
*787 FILLER_31_113
*788 FILLER_31_125
*789 FILLER_31_137
*790 FILLER_31_149
*791 FILLER_31_161
*792 FILLER_31_167
*793 FILLER_31_169
*794 FILLER_31_18
*795 FILLER_31_181
*796 FILLER_31_193
*797 FILLER_31_205
*798 FILLER_31_217
*799 FILLER_31_223
*800 FILLER_31_225
*801 FILLER_31_237
*802 FILLER_31_249
*803 FILLER_31_261
*804 FILLER_31_273
*805 FILLER_31_279
*806 FILLER_31_281
*807 FILLER_31_293
*808 FILLER_31_30
*809 FILLER_31_42
*810 FILLER_31_54
*811 FILLER_31_57
*812 FILLER_31_6
*813 FILLER_31_69
*814 FILLER_31_81
*815 FILLER_31_93
*816 FILLER_32_109
*817 FILLER_32_121
*818 FILLER_32_133
*819 FILLER_32_139
*820 FILLER_32_141
*821 FILLER_32_15
*822 FILLER_32_153
*823 FILLER_32_165
*824 FILLER_32_177
*825 FILLER_32_189
*826 FILLER_32_195
*827 FILLER_32_197
*828 FILLER_32_209
*829 FILLER_32_221
*830 FILLER_32_233
*831 FILLER_32_245
*832 FILLER_32_251
*833 FILLER_32_253
*834 FILLER_32_265
*835 FILLER_32_27
*836 FILLER_32_277
*837 FILLER_32_289
*838 FILLER_32_29
*839 FILLER_32_297
*840 FILLER_32_3
*841 FILLER_32_41
*842 FILLER_32_53
*843 FILLER_32_65
*844 FILLER_32_77
*845 FILLER_32_83
*846 FILLER_32_85
*847 FILLER_32_97
*848 FILLER_33_105
*849 FILLER_33_111
*850 FILLER_33_113
*851 FILLER_33_125
*852 FILLER_33_137
*853 FILLER_33_149
*854 FILLER_33_15
*855 FILLER_33_161
*856 FILLER_33_167
*857 FILLER_33_169
*858 FILLER_33_181
*859 FILLER_33_193
*860 FILLER_33_205
*861 FILLER_33_217
*862 FILLER_33_223
*863 FILLER_33_225
*864 FILLER_33_237
*865 FILLER_33_249
*866 FILLER_33_261
*867 FILLER_33_27
*868 FILLER_33_273
*869 FILLER_33_279
*870 FILLER_33_281
*871 FILLER_33_293
*872 FILLER_33_3
*873 FILLER_33_39
*874 FILLER_33_51
*875 FILLER_33_55
*876 FILLER_33_57
*877 FILLER_33_69
*878 FILLER_33_81
*879 FILLER_33_93
*880 FILLER_34_109
*881 FILLER_34_121
*882 FILLER_34_133
*883 FILLER_34_139
*884 FILLER_34_141
*885 FILLER_34_15
*886 FILLER_34_153
*887 FILLER_34_165
*888 FILLER_34_177
*889 FILLER_34_189
*890 FILLER_34_195
*891 FILLER_34_197
*892 FILLER_34_209
*893 FILLER_34_221
*894 FILLER_34_233
*895 FILLER_34_245
*896 FILLER_34_251
*897 FILLER_34_253
*898 FILLER_34_265
*899 FILLER_34_27
*900 FILLER_34_277
*901 FILLER_34_289
*902 FILLER_34_29
*903 FILLER_34_297
*904 FILLER_34_3
*905 FILLER_34_41
*906 FILLER_34_53
*907 FILLER_34_65
*908 FILLER_34_77
*909 FILLER_34_83
*910 FILLER_34_85
*911 FILLER_34_97
*912 FILLER_35_105
*913 FILLER_35_111
*914 FILLER_35_113
*915 FILLER_35_125
*916 FILLER_35_137
*917 FILLER_35_149
*918 FILLER_35_161
*919 FILLER_35_167
*920 FILLER_35_169
*921 FILLER_35_18
*922 FILLER_35_181
*923 FILLER_35_193
*924 FILLER_35_205
*925 FILLER_35_217
*926 FILLER_35_223
*927 FILLER_35_225
*928 FILLER_35_237
*929 FILLER_35_249
*930 FILLER_35_261
*931 FILLER_35_273
*932 FILLER_35_279
*933 FILLER_35_281
*934 FILLER_35_293
*935 FILLER_35_30
*936 FILLER_35_42
*937 FILLER_35_54
*938 FILLER_35_57
*939 FILLER_35_6
*940 FILLER_35_69
*941 FILLER_35_81
*942 FILLER_35_93
*943 FILLER_36_109
*944 FILLER_36_121
*945 FILLER_36_133
*946 FILLER_36_139
*947 FILLER_36_141
*948 FILLER_36_15
*949 FILLER_36_153
*950 FILLER_36_165
*951 FILLER_36_177
*952 FILLER_36_189
*953 FILLER_36_195
*954 FILLER_36_197
*955 FILLER_36_209
*956 FILLER_36_221
*957 FILLER_36_233
*958 FILLER_36_245
*959 FILLER_36_251
*960 FILLER_36_253
*961 FILLER_36_265
*962 FILLER_36_27
*963 FILLER_36_277
*964 FILLER_36_289
*965 FILLER_36_29
*966 FILLER_36_297
*967 FILLER_36_3
*968 FILLER_36_41
*969 FILLER_36_53
*970 FILLER_36_65
*971 FILLER_36_77
*972 FILLER_36_83
*973 FILLER_36_85
*974 FILLER_36_97
*975 FILLER_37_105
*976 FILLER_37_111
*977 FILLER_37_113
*978 FILLER_37_125
*979 FILLER_37_137
*980 FILLER_37_149
*981 FILLER_37_15
*982 FILLER_37_161
*983 FILLER_37_167
*984 FILLER_37_169
*985 FILLER_37_181
*986 FILLER_37_193
*987 FILLER_37_205
*988 FILLER_37_217
*989 FILLER_37_223
*990 FILLER_37_225
*991 FILLER_37_237
*992 FILLER_37_249
*993 FILLER_37_261
*994 FILLER_37_27
*995 FILLER_37_273
*996 FILLER_37_279
*997 FILLER_37_281
*998 FILLER_37_293
*999 FILLER_37_3
*1000 FILLER_37_39
*1001 FILLER_37_51
*1002 FILLER_37_55
*1003 FILLER_37_57
*1004 FILLER_37_69
*1005 FILLER_37_81
*1006 FILLER_37_93
*1007 FILLER_38_109
*1008 FILLER_38_121
*1009 FILLER_38_133
*1010 FILLER_38_139
*1011 FILLER_38_141
*1012 FILLER_38_15
*1013 FILLER_38_153
*1014 FILLER_38_165
*1015 FILLER_38_177
*1016 FILLER_38_189
*1017 FILLER_38_195
*1018 FILLER_38_197
*1019 FILLER_38_209
*1020 FILLER_38_221
*1021 FILLER_38_233
*1022 FILLER_38_245
*1023 FILLER_38_251
*1024 FILLER_38_253
*1025 FILLER_38_265
*1026 FILLER_38_27
*1027 FILLER_38_277
*1028 FILLER_38_289
*1029 FILLER_38_29
*1030 FILLER_38_297
*1031 FILLER_38_3
*1032 FILLER_38_41
*1033 FILLER_38_53
*1034 FILLER_38_65
*1035 FILLER_38_77
*1036 FILLER_38_83
*1037 FILLER_38_85
*1038 FILLER_38_97
*1039 FILLER_39_105
*1040 FILLER_39_111
*1041 FILLER_39_113
*1042 FILLER_39_125
*1043 FILLER_39_137
*1044 FILLER_39_149
*1045 FILLER_39_161
*1046 FILLER_39_167
*1047 FILLER_39_169
*1048 FILLER_39_18
*1049 FILLER_39_181
*1050 FILLER_39_193
*1051 FILLER_39_205
*1052 FILLER_39_217
*1053 FILLER_39_223
*1054 FILLER_39_225
*1055 FILLER_39_237
*1056 FILLER_39_249
*1057 FILLER_39_261
*1058 FILLER_39_273
*1059 FILLER_39_279
*1060 FILLER_39_281
*1061 FILLER_39_293
*1062 FILLER_39_30
*1063 FILLER_39_42
*1064 FILLER_39_54
*1065 FILLER_39_57
*1066 FILLER_39_6
*1067 FILLER_39_69
*1068 FILLER_39_81
*1069 FILLER_39_93
*1070 FILLER_3_105
*1071 FILLER_3_111
*1072 FILLER_3_113
*1073 FILLER_3_125
*1074 FILLER_3_137
*1075 FILLER_3_149
*1076 FILLER_3_15
*1077 FILLER_3_161
*1078 FILLER_3_167
*1079 FILLER_3_169
*1080 FILLER_3_181
*1081 FILLER_3_193
*1082 FILLER_3_205
*1083 FILLER_3_217
*1084 FILLER_3_223
*1085 FILLER_3_225
*1086 FILLER_3_237
*1087 FILLER_3_249
*1088 FILLER_3_261
*1089 FILLER_3_27
*1090 FILLER_3_273
*1091 FILLER_3_279
*1092 FILLER_3_281
*1093 FILLER_3_293
*1094 FILLER_3_3
*1095 FILLER_3_39
*1096 FILLER_3_51
*1097 FILLER_3_55
*1098 FILLER_3_57
*1099 FILLER_3_69
*1100 FILLER_3_81
*1101 FILLER_3_93
*1102 FILLER_40_109
*1103 FILLER_40_121
*1104 FILLER_40_133
*1105 FILLER_40_139
*1106 FILLER_40_141
*1107 FILLER_40_15
*1108 FILLER_40_153
*1109 FILLER_40_165
*1110 FILLER_40_177
*1111 FILLER_40_189
*1112 FILLER_40_195
*1113 FILLER_40_197
*1114 FILLER_40_209
*1115 FILLER_40_221
*1116 FILLER_40_233
*1117 FILLER_40_245
*1118 FILLER_40_251
*1119 FILLER_40_253
*1120 FILLER_40_265
*1121 FILLER_40_27
*1122 FILLER_40_277
*1123 FILLER_40_289
*1124 FILLER_40_29
*1125 FILLER_40_297
*1126 FILLER_40_3
*1127 FILLER_40_41
*1128 FILLER_40_53
*1129 FILLER_40_65
*1130 FILLER_40_77
*1131 FILLER_40_83
*1132 FILLER_40_85
*1133 FILLER_40_97
*1134 FILLER_41_105
*1135 FILLER_41_111
*1136 FILLER_41_113
*1137 FILLER_41_125
*1138 FILLER_41_137
*1139 FILLER_41_149
*1140 FILLER_41_15
*1141 FILLER_41_161
*1142 FILLER_41_167
*1143 FILLER_41_169
*1144 FILLER_41_181
*1145 FILLER_41_193
*1146 FILLER_41_205
*1147 FILLER_41_217
*1148 FILLER_41_223
*1149 FILLER_41_225
*1150 FILLER_41_237
*1151 FILLER_41_249
*1152 FILLER_41_261
*1153 FILLER_41_27
*1154 FILLER_41_273
*1155 FILLER_41_279
*1156 FILLER_41_281
*1157 FILLER_41_293
*1158 FILLER_41_3
*1159 FILLER_41_39
*1160 FILLER_41_51
*1161 FILLER_41_55
*1162 FILLER_41_57
*1163 FILLER_41_69
*1164 FILLER_41_81
*1165 FILLER_41_93
*1166 FILLER_42_109
*1167 FILLER_42_121
*1168 FILLER_42_133
*1169 FILLER_42_139
*1170 FILLER_42_141
*1171 FILLER_42_153
*1172 FILLER_42_165
*1173 FILLER_42_177
*1174 FILLER_42_18
*1175 FILLER_42_189
*1176 FILLER_42_195
*1177 FILLER_42_197
*1178 FILLER_42_209
*1179 FILLER_42_221
*1180 FILLER_42_233
*1181 FILLER_42_245
*1182 FILLER_42_251
*1183 FILLER_42_253
*1184 FILLER_42_26
*1185 FILLER_42_265
*1186 FILLER_42_277
*1187 FILLER_42_289
*1188 FILLER_42_29
*1189 FILLER_42_297
*1190 FILLER_42_41
*1191 FILLER_42_53
*1192 FILLER_42_6
*1193 FILLER_42_65
*1194 FILLER_42_77
*1195 FILLER_42_83
*1196 FILLER_42_85
*1197 FILLER_42_97
*1198 FILLER_43_105
*1199 FILLER_43_111
*1200 FILLER_43_113
*1201 FILLER_43_125
*1202 FILLER_43_137
*1203 FILLER_43_149
*1204 FILLER_43_15
*1205 FILLER_43_161
*1206 FILLER_43_167
*1207 FILLER_43_169
*1208 FILLER_43_181
*1209 FILLER_43_193
*1210 FILLER_43_205
*1211 FILLER_43_217
*1212 FILLER_43_223
*1213 FILLER_43_225
*1214 FILLER_43_237
*1215 FILLER_43_249
*1216 FILLER_43_261
*1217 FILLER_43_27
*1218 FILLER_43_273
*1219 FILLER_43_279
*1220 FILLER_43_281
*1221 FILLER_43_293
*1222 FILLER_43_3
*1223 FILLER_43_39
*1224 FILLER_43_51
*1225 FILLER_43_55
*1226 FILLER_43_57
*1227 FILLER_43_69
*1228 FILLER_43_81
*1229 FILLER_43_93
*1230 FILLER_44_109
*1231 FILLER_44_121
*1232 FILLER_44_133
*1233 FILLER_44_139
*1234 FILLER_44_141
*1235 FILLER_44_15
*1236 FILLER_44_153
*1237 FILLER_44_165
*1238 FILLER_44_177
*1239 FILLER_44_189
*1240 FILLER_44_195
*1241 FILLER_44_197
*1242 FILLER_44_209
*1243 FILLER_44_221
*1244 FILLER_44_233
*1245 FILLER_44_245
*1246 FILLER_44_251
*1247 FILLER_44_253
*1248 FILLER_44_265
*1249 FILLER_44_27
*1250 FILLER_44_277
*1251 FILLER_44_289
*1252 FILLER_44_29
*1253 FILLER_44_297
*1254 FILLER_44_3
*1255 FILLER_44_41
*1256 FILLER_44_53
*1257 FILLER_44_65
*1258 FILLER_44_77
*1259 FILLER_44_83
*1260 FILLER_44_85
*1261 FILLER_44_97
*1262 FILLER_45_105
*1263 FILLER_45_111
*1264 FILLER_45_113
*1265 FILLER_45_125
*1266 FILLER_45_137
*1267 FILLER_45_149
*1268 FILLER_45_15
*1269 FILLER_45_161
*1270 FILLER_45_167
*1271 FILLER_45_169
*1272 FILLER_45_181
*1273 FILLER_45_193
*1274 FILLER_45_205
*1275 FILLER_45_217
*1276 FILLER_45_223
*1277 FILLER_45_225
*1278 FILLER_45_237
*1279 FILLER_45_249
*1280 FILLER_45_261
*1281 FILLER_45_27
*1282 FILLER_45_273
*1283 FILLER_45_279
*1284 FILLER_45_281
*1285 FILLER_45_293
*1286 FILLER_45_3
*1287 FILLER_45_39
*1288 FILLER_45_51
*1289 FILLER_45_55
*1290 FILLER_45_57
*1291 FILLER_45_69
*1292 FILLER_45_81
*1293 FILLER_45_93
*1294 FILLER_46_109
*1295 FILLER_46_121
*1296 FILLER_46_133
*1297 FILLER_46_139
*1298 FILLER_46_141
*1299 FILLER_46_153
*1300 FILLER_46_165
*1301 FILLER_46_177
*1302 FILLER_46_18
*1303 FILLER_46_189
*1304 FILLER_46_195
*1305 FILLER_46_197
*1306 FILLER_46_209
*1307 FILLER_46_221
*1308 FILLER_46_233
*1309 FILLER_46_245
*1310 FILLER_46_251
*1311 FILLER_46_253
*1312 FILLER_46_26
*1313 FILLER_46_265
*1314 FILLER_46_277
*1315 FILLER_46_289
*1316 FILLER_46_29
*1317 FILLER_46_297
*1318 FILLER_46_41
*1319 FILLER_46_53
*1320 FILLER_46_6
*1321 FILLER_46_65
*1322 FILLER_46_77
*1323 FILLER_46_83
*1324 FILLER_46_85
*1325 FILLER_46_97
*1326 FILLER_47_105
*1327 FILLER_47_111
*1328 FILLER_47_113
*1329 FILLER_47_125
*1330 FILLER_47_137
*1331 FILLER_47_149
*1332 FILLER_47_15
*1333 FILLER_47_161
*1334 FILLER_47_167
*1335 FILLER_47_169
*1336 FILLER_47_181
*1337 FILLER_47_193
*1338 FILLER_47_205
*1339 FILLER_47_217
*1340 FILLER_47_223
*1341 FILLER_47_225
*1342 FILLER_47_237
*1343 FILLER_47_249
*1344 FILLER_47_261
*1345 FILLER_47_27
*1346 FILLER_47_273
*1347 FILLER_47_279
*1348 FILLER_47_281
*1349 FILLER_47_293
*1350 FILLER_47_3
*1351 FILLER_47_39
*1352 FILLER_47_51
*1353 FILLER_47_55
*1354 FILLER_47_57
*1355 FILLER_47_69
*1356 FILLER_47_81
*1357 FILLER_47_93
*1358 FILLER_48_109
*1359 FILLER_48_121
*1360 FILLER_48_133
*1361 FILLER_48_139
*1362 FILLER_48_141
*1363 FILLER_48_15
*1364 FILLER_48_153
*1365 FILLER_48_165
*1366 FILLER_48_177
*1367 FILLER_48_189
*1368 FILLER_48_195
*1369 FILLER_48_197
*1370 FILLER_48_209
*1371 FILLER_48_221
*1372 FILLER_48_233
*1373 FILLER_48_245
*1374 FILLER_48_251
*1375 FILLER_48_253
*1376 FILLER_48_265
*1377 FILLER_48_27
*1378 FILLER_48_277
*1379 FILLER_48_289
*1380 FILLER_48_29
*1381 FILLER_48_297
*1382 FILLER_48_3
*1383 FILLER_48_41
*1384 FILLER_48_53
*1385 FILLER_48_65
*1386 FILLER_48_77
*1387 FILLER_48_83
*1388 FILLER_48_85
*1389 FILLER_48_97
*1390 FILLER_49_105
*1391 FILLER_49_111
*1392 FILLER_49_113
*1393 FILLER_49_125
*1394 FILLER_49_137
*1395 FILLER_49_149
*1396 FILLER_49_15
*1397 FILLER_49_161
*1398 FILLER_49_167
*1399 FILLER_49_169
*1400 FILLER_49_181
*1401 FILLER_49_193
*1402 FILLER_49_205
*1403 FILLER_49_217
*1404 FILLER_49_223
*1405 FILLER_49_225
*1406 FILLER_49_237
*1407 FILLER_49_249
*1408 FILLER_49_261
*1409 FILLER_49_27
*1410 FILLER_49_273
*1411 FILLER_49_279
*1412 FILLER_49_281
*1413 FILLER_49_293
*1414 FILLER_49_3
*1415 FILLER_49_39
*1416 FILLER_49_51
*1417 FILLER_49_55
*1418 FILLER_49_57
*1419 FILLER_49_69
*1420 FILLER_49_81
*1421 FILLER_49_93
*1422 FILLER_4_109
*1423 FILLER_4_121
*1424 FILLER_4_133
*1425 FILLER_4_139
*1426 FILLER_4_141
*1427 FILLER_4_15
*1428 FILLER_4_153
*1429 FILLER_4_165
*1430 FILLER_4_177
*1431 FILLER_4_189
*1432 FILLER_4_195
*1433 FILLER_4_197
*1434 FILLER_4_209
*1435 FILLER_4_221
*1436 FILLER_4_233
*1437 FILLER_4_245
*1438 FILLER_4_251
*1439 FILLER_4_253
*1440 FILLER_4_265
*1441 FILLER_4_27
*1442 FILLER_4_277
*1443 FILLER_4_289
*1444 FILLER_4_29
*1445 FILLER_4_297
*1446 FILLER_4_3
*1447 FILLER_4_41
*1448 FILLER_4_53
*1449 FILLER_4_65
*1450 FILLER_4_77
*1451 FILLER_4_83
*1452 FILLER_4_85
*1453 FILLER_4_97
*1454 FILLER_50_109
*1455 FILLER_50_121
*1456 FILLER_50_133
*1457 FILLER_50_139
*1458 FILLER_50_141
*1459 FILLER_50_153
*1460 FILLER_50_165
*1461 FILLER_50_177
*1462 FILLER_50_18
*1463 FILLER_50_189
*1464 FILLER_50_195
*1465 FILLER_50_197
*1466 FILLER_50_209
*1467 FILLER_50_221
*1468 FILLER_50_233
*1469 FILLER_50_245
*1470 FILLER_50_251
*1471 FILLER_50_253
*1472 FILLER_50_26
*1473 FILLER_50_265
*1474 FILLER_50_277
*1475 FILLER_50_289
*1476 FILLER_50_29
*1477 FILLER_50_297
*1478 FILLER_50_41
*1479 FILLER_50_53
*1480 FILLER_50_6
*1481 FILLER_50_65
*1482 FILLER_50_77
*1483 FILLER_50_83
*1484 FILLER_50_85
*1485 FILLER_50_97
*1486 FILLER_51_105
*1487 FILLER_51_111
*1488 FILLER_51_113
*1489 FILLER_51_125
*1490 FILLER_51_137
*1491 FILLER_51_149
*1492 FILLER_51_15
*1493 FILLER_51_161
*1494 FILLER_51_167
*1495 FILLER_51_169
*1496 FILLER_51_181
*1497 FILLER_51_193
*1498 FILLER_51_205
*1499 FILLER_51_217
*1500 FILLER_51_223
*1501 FILLER_51_225
*1502 FILLER_51_237
*1503 FILLER_51_249
*1504 FILLER_51_261
*1505 FILLER_51_27
*1506 FILLER_51_273
*1507 FILLER_51_279
*1508 FILLER_51_281
*1509 FILLER_51_293
*1510 FILLER_51_3
*1511 FILLER_51_39
*1512 FILLER_51_51
*1513 FILLER_51_55
*1514 FILLER_51_57
*1515 FILLER_51_69
*1516 FILLER_51_81
*1517 FILLER_51_93
*1518 FILLER_52_109
*1519 FILLER_52_121
*1520 FILLER_52_133
*1521 FILLER_52_139
*1522 FILLER_52_141
*1523 FILLER_52_15
*1524 FILLER_52_153
*1525 FILLER_52_165
*1526 FILLER_52_177
*1527 FILLER_52_189
*1528 FILLER_52_195
*1529 FILLER_52_197
*1530 FILLER_52_209
*1531 FILLER_52_221
*1532 FILLER_52_233
*1533 FILLER_52_245
*1534 FILLER_52_251
*1535 FILLER_52_253
*1536 FILLER_52_265
*1537 FILLER_52_27
*1538 FILLER_52_277
*1539 FILLER_52_289
*1540 FILLER_52_29
*1541 FILLER_52_297
*1542 FILLER_52_3
*1543 FILLER_52_41
*1544 FILLER_52_53
*1545 FILLER_52_65
*1546 FILLER_52_77
*1547 FILLER_52_83
*1548 FILLER_52_85
*1549 FILLER_52_97
*1550 FILLER_53_105
*1551 FILLER_53_111
*1552 FILLER_53_113
*1553 FILLER_53_125
*1554 FILLER_53_137
*1555 FILLER_53_149
*1556 FILLER_53_15
*1557 FILLER_53_161
*1558 FILLER_53_167
*1559 FILLER_53_169
*1560 FILLER_53_181
*1561 FILLER_53_193
*1562 FILLER_53_205
*1563 FILLER_53_217
*1564 FILLER_53_223
*1565 FILLER_53_225
*1566 FILLER_53_237
*1567 FILLER_53_249
*1568 FILLER_53_261
*1569 FILLER_53_27
*1570 FILLER_53_273
*1571 FILLER_53_279
*1572 FILLER_53_281
*1573 FILLER_53_293
*1574 FILLER_53_3
*1575 FILLER_53_39
*1576 FILLER_53_51
*1577 FILLER_53_55
*1578 FILLER_53_57
*1579 FILLER_53_69
*1580 FILLER_53_81
*1581 FILLER_53_93