*SPEF "ieee 1481-1999"
*DESIGN "user_module_349953952950780498"
*DATE "11:11:11 Fri 11 11, 1111"
*VENDOR "OpenRCX"
*PROGRAM "Parallel Extraction"
*VERSION "1.0"
*DESIGN_FLOW "NAME_SCOPE LOCAL" "PIN_CAP NONE"
*DIVIDER /
*DELIMITER :
*BUS_DELIMITER []
*T_UNIT 1 NS
*C_UNIT 1 PF
*R_UNIT 1 OHM
*L_UNIT 1 HENRY

*NAME_MAP
*1 io_in[0]
*2 io_in[1]
*3 io_in[2]
*4 io_in[3]
*5 io_in[4]
*6 io_in[5]
*7 io_in[6]
*8 io_in[7]
*9 io_out[0]
*10 io_out[1]
*11 io_out[2]
*12 io_out[3]
*13 io_out[4]
*14 io_out[5]
*15 io_out[6]
*16 io_out[7]
*19 _000_
*20 _001_
*21 _002_
*22 _003_
*23 _004_
*24 _005_
*25 _006_
*26 _007_
*27 _008_
*28 _009_
*29 _010_
*30 _011_
*31 _012_
*32 _013_
*33 _014_
*34 _015_
*35 _016_
*36 _017_
*37 _018_
*38 _019_
*39 _020_
*40 _021_
*41 _022_
*42 _023_
*43 _024_
*44 _025_
*45 _026_
*46 _027_
*47 _028_
*48 _029_
*49 _030_
*50 _031_
*51 _032_
*52 _033_
*53 _034_
*54 _035_
*55 _036_
*56 _037_
*57 _038_
*58 _039_
*59 _040_
*60 _041_
*61 _042_
*62 _043_
*63 _044_
*64 _045_
*65 _046_
*66 _047_
*67 _048_
*68 _049_
*69 _050_
*70 _051_
*71 _052_
*72 _053_
*73 _054_
*74 _055_
*75 _056_
*76 _057_
*77 _058_
*78 _059_
*79 _060_
*80 _061_
*81 _062_
*82 _063_
*83 _064_
*84 _065_
*85 _066_
*86 _067_
*87 _068_
*88 _069_
*89 _070_
*90 _071_
*91 _072_
*92 _073_
*93 _074_
*94 _075_
*95 _076_
*96 _077_
*97 _078_
*98 _079_
*99 _080_
*100 _081_
*101 _082_
*102 _083_
*103 _084_
*104 _085_
*105 _086_
*106 _087_
*107 _088_
*108 _089_
*109 _090_
*110 _091_
*111 _092_
*112 _093_
*113 _094_
*114 _095_
*115 _096_
*116 _097_
*117 _098_
*118 _099_
*119 _100_
*120 _101_
*121 _102_
*122 _103_
*123 _104_
*124 _105_
*125 _106_
*126 _107_
*127 _108_
*128 _109_
*129 _110_
*130 _111_
*131 _112_
*132 _113_
*133 _114_
*134 _115_
*135 _116_
*136 _117_
*137 _118_
*138 _119_
*139 _120_
*140 _121_
*141 clknet_0_io_in[0]
*142 clknet_1_0__leaf_io_in[0]
*143 clknet_1_1__leaf_io_in[0]
*144 flipflop10\.q
*145 flipflop11\.q
*146 flipflop12\.q
*147 flipflop13\.q
*148 flipflop14\.q
*149 flipflop15\.q
*150 flipflop16\.q
*151 flipflop17\.q
*152 flipflop18\.q
*153 flipflop19\.q
*154 flipflop2\.q
*155 flipflop3\.q
*156 flipflop4\.q
*157 flipflop5\.q
*158 flipflop6\.q
*159 flipflop7\.q
*160 flipflop8\.q
*161 flipflop9\.q
*162 gate156\.out
*163 gate165\.out
*164 gate179\.out
*165 gate185\.out
*166 gate192\.out
*167 gate193\.out
*168 gate199\.out
*169 gate80\.out
*170 net1
*171 net2
*172 net3
*173 net4
*174 net5
*175 net6
*176 net7
*177 FILLER_0_109
*178 FILLER_0_113
*179 FILLER_0_125
*180 FILLER_0_137
*181 FILLER_0_141
*182 FILLER_0_153
*183 FILLER_0_165
*184 FILLER_0_169
*185 FILLER_0_181
*186 FILLER_0_193
*187 FILLER_0_197
*188 FILLER_0_209
*189 FILLER_0_221
*190 FILLER_0_225
*191 FILLER_0_237
*192 FILLER_0_24
*193 FILLER_0_249
*194 FILLER_0_253
*195 FILLER_0_265
*196 FILLER_0_277
*197 FILLER_0_281
*198 FILLER_0_293
*199 FILLER_0_3
*200 FILLER_0_45
*201 FILLER_0_53
*202 FILLER_0_73
*203 FILLER_0_81
*204 FILLER_0_85
*205 FILLER_0_97
*206 FILLER_10_109
*207 FILLER_10_121
*208 FILLER_10_133
*209 FILLER_10_139
*210 FILLER_10_141
*211 FILLER_10_15
*212 FILLER_10_153
*213 FILLER_10_165
*214 FILLER_10_177
*215 FILLER_10_189
*216 FILLER_10_195
*217 FILLER_10_197
*218 FILLER_10_209
*219 FILLER_10_221
*220 FILLER_10_233
*221 FILLER_10_245
*222 FILLER_10_251
*223 FILLER_10_253
*224 FILLER_10_265
*225 FILLER_10_27
*226 FILLER_10_277
*227 FILLER_10_289
*228 FILLER_10_297
*229 FILLER_10_3
*230 FILLER_10_45
*231 FILLER_10_57
*232 FILLER_10_69
*233 FILLER_10_81
*234 FILLER_10_85
*235 FILLER_10_97
*236 FILLER_11_105
*237 FILLER_11_111
*238 FILLER_11_113
*239 FILLER_11_12
*240 FILLER_11_125
*241 FILLER_11_137
*242 FILLER_11_149
*243 FILLER_11_161
*244 FILLER_11_167
*245 FILLER_11_169
*246 FILLER_11_181
*247 FILLER_11_19
*248 FILLER_11_193
*249 FILLER_11_205
*250 FILLER_11_217
*251 FILLER_11_223
*252 FILLER_11_225
*253 FILLER_11_237
*254 FILLER_11_249
*255 FILLER_11_261
*256 FILLER_11_273
*257 FILLER_11_279
*258 FILLER_11_281
*259 FILLER_11_293
*260 FILLER_11_3
*261 FILLER_11_31
*262 FILLER_11_50
*263 FILLER_11_57
*264 FILLER_11_69
*265 FILLER_11_81
*266 FILLER_11_93
*267 FILLER_12_10
*268 FILLER_12_109
*269 FILLER_12_121
*270 FILLER_12_133
*271 FILLER_12_139
*272 FILLER_12_141
*273 FILLER_12_153
*274 FILLER_12_16
*275 FILLER_12_165
*276 FILLER_12_177
*277 FILLER_12_189
*278 FILLER_12_195
*279 FILLER_12_197
*280 FILLER_12_209
*281 FILLER_12_221
*282 FILLER_12_23
*283 FILLER_12_233
*284 FILLER_12_245
*285 FILLER_12_251
*286 FILLER_12_253
*287 FILLER_12_265
*288 FILLER_12_27
*289 FILLER_12_277
*290 FILLER_12_289
*291 FILLER_12_297
*292 FILLER_12_32
*293 FILLER_12_44
*294 FILLER_12_51
*295 FILLER_12_6
*296 FILLER_12_63
*297 FILLER_12_75
*298 FILLER_12_83
*299 FILLER_12_85
*300 FILLER_12_97
*301 FILLER_13_105
*302 FILLER_13_111
*303 FILLER_13_113
*304 FILLER_13_125
*305 FILLER_13_137
*306 FILLER_13_149
*307 FILLER_13_161
*308 FILLER_13_167
*309 FILLER_13_169
*310 FILLER_13_181
*311 FILLER_13_193
*312 FILLER_13_205
*313 FILLER_13_217
*314 FILLER_13_223
*315 FILLER_13_225
*316 FILLER_13_237
*317 FILLER_13_24
*318 FILLER_13_249
*319 FILLER_13_261
*320 FILLER_13_273
*321 FILLER_13_279
*322 FILLER_13_281
*323 FILLER_13_293
*324 FILLER_13_3
*325 FILLER_13_39
*326 FILLER_13_51
*327 FILLER_13_55
*328 FILLER_13_57
*329 FILLER_13_69
*330 FILLER_13_81
*331 FILLER_13_9
*332 FILLER_13_93
*333 FILLER_14_109
*334 FILLER_14_121
*335 FILLER_14_133
*336 FILLER_14_139
*337 FILLER_14_141
*338 FILLER_14_15
*339 FILLER_14_153
*340 FILLER_14_165
*341 FILLER_14_177
*342 FILLER_14_189
*343 FILLER_14_195
*344 FILLER_14_197
*345 FILLER_14_209
*346 FILLER_14_221
*347 FILLER_14_233
*348 FILLER_14_245
*349 FILLER_14_251
*350 FILLER_14_253
*351 FILLER_14_265
*352 FILLER_14_27
*353 FILLER_14_277
*354 FILLER_14_289
*355 FILLER_14_29
*356 FILLER_14_297
*357 FILLER_14_41
*358 FILLER_14_47
*359 FILLER_14_52
*360 FILLER_14_6
*361 FILLER_14_60
*362 FILLER_14_68
*363 FILLER_14_80
*364 FILLER_14_85
*365 FILLER_14_97
*366 FILLER_15_105
*367 FILLER_15_111
*368 FILLER_15_113
*369 FILLER_15_125
*370 FILLER_15_137
*371 FILLER_15_149
*372 FILLER_15_161
*373 FILLER_15_167
*374 FILLER_15_169
*375 FILLER_15_18
*376 FILLER_15_181
*377 FILLER_15_193
*378 FILLER_15_205
*379 FILLER_15_217
*380 FILLER_15_223
*381 FILLER_15_225
*382 FILLER_15_237
*383 FILLER_15_249
*384 FILLER_15_261
*385 FILLER_15_273
*386 FILLER_15_279
*387 FILLER_15_281
*388 FILLER_15_293
*389 FILLER_15_3
*390 FILLER_15_30
*391 FILLER_15_34
*392 FILLER_15_46
*393 FILLER_15_54
*394 FILLER_15_57
*395 FILLER_15_69
*396 FILLER_15_81
*397 FILLER_15_9
*398 FILLER_15_93
*399 FILLER_16_109
*400 FILLER_16_121
*401 FILLER_16_133
*402 FILLER_16_139
*403 FILLER_16_141
*404 FILLER_16_153
*405 FILLER_16_165
*406 FILLER_16_177
*407 FILLER_16_18
*408 FILLER_16_189
*409 FILLER_16_195
*410 FILLER_16_197
*411 FILLER_16_209
*412 FILLER_16_221
*413 FILLER_16_233
*414 FILLER_16_245
*415 FILLER_16_251
*416 FILLER_16_253
*417 FILLER_16_26
*418 FILLER_16_265
*419 FILLER_16_277
*420 FILLER_16_289
*421 FILLER_16_29
*422 FILLER_16_297
*423 FILLER_16_3
*424 FILLER_16_36
*425 FILLER_16_46
*426 FILLER_16_58
*427 FILLER_16_7
*428 FILLER_16_70
*429 FILLER_16_82
*430 FILLER_16_85
*431 FILLER_16_97
*432 FILLER_17_102
*433 FILLER_17_110
*434 FILLER_17_113
*435 FILLER_17_125
*436 FILLER_17_137
*437 FILLER_17_149
*438 FILLER_17_161
*439 FILLER_17_167
*440 FILLER_17_169
*441 FILLER_17_17
*442 FILLER_17_181
*443 FILLER_17_193
*444 FILLER_17_205
*445 FILLER_17_21
*446 FILLER_17_217
*447 FILLER_17_223
*448 FILLER_17_225
*449 FILLER_17_237
*450 FILLER_17_249
*451 FILLER_17_261
*452 FILLER_17_273
*453 FILLER_17_279
*454 FILLER_17_281
*455 FILLER_17_293
*456 FILLER_17_3
*457 FILLER_17_32
*458 FILLER_17_50
*459 FILLER_17_66
*460 FILLER_17_78
*461 FILLER_17_9
*462 FILLER_17_90
*463 FILLER_18_109
*464 FILLER_18_121
*465 FILLER_18_133
*466 FILLER_18_139
*467 FILLER_18_141
*468 FILLER_18_15
*469 FILLER_18_153
*470 FILLER_18_165
*471 FILLER_18_177
*472 FILLER_18_189
*473 FILLER_18_195
*474 FILLER_18_197
*475 FILLER_18_209
*476 FILLER_18_22
*477 FILLER_18_221
*478 FILLER_18_233
*479 FILLER_18_245
*480 FILLER_18_251
*481 FILLER_18_253
*482 FILLER_18_265
*483 FILLER_18_277
*484 FILLER_18_289
*485 FILLER_18_297
*486 FILLER_18_32
*487 FILLER_18_44
*488 FILLER_18_56
*489 FILLER_18_6
*490 FILLER_18_68
*491 FILLER_18_80
*492 FILLER_18_85
*493 FILLER_18_97
*494 FILLER_19_10
*495 FILLER_19_101
*496 FILLER_19_109
*497 FILLER_19_113
*498 FILLER_19_125
*499 FILLER_19_137
*500 FILLER_19_149
*501 FILLER_19_161
*502 FILLER_19_167
*503 FILLER_19_169
*504 FILLER_19_181
*505 FILLER_19_193
*506 FILLER_19_205
*507 FILLER_19_217
*508 FILLER_19_223
*509 FILLER_19_225
*510 FILLER_19_237
*511 FILLER_19_249
*512 FILLER_19_261
*513 FILLER_19_273
*514 FILLER_19_279
*515 FILLER_19_281
*516 FILLER_19_293
*517 FILLER_19_31
*518 FILLER_19_44
*519 FILLER_19_52
*520 FILLER_19_60
*521 FILLER_19_72
*522 FILLER_19_84
*523 FILLER_19_96
*524 FILLER_1_109
*525 FILLER_1_113
*526 FILLER_1_125
*527 FILLER_1_137
*528 FILLER_1_149
*529 FILLER_1_161
*530 FILLER_1_167
*531 FILLER_1_169
*532 FILLER_1_181
*533 FILLER_1_193
*534 FILLER_1_205
*535 FILLER_1_217
*536 FILLER_1_223
*537 FILLER_1_225
*538 FILLER_1_237
*539 FILLER_1_249
*540 FILLER_1_25
*541 FILLER_1_261
*542 FILLER_1_273
*543 FILLER_1_279
*544 FILLER_1_281
*545 FILLER_1_293
*546 FILLER_1_3
*547 FILLER_1_45
*548 FILLER_1_52
*549 FILLER_1_73
*550 FILLER_1_85
*551 FILLER_1_97
*552 FILLER_20_109
*553 FILLER_20_121
*554 FILLER_20_133
*555 FILLER_20_139
*556 FILLER_20_141
*557 FILLER_20_153
*558 FILLER_20_165
*559 FILLER_20_17
*560 FILLER_20_177
*561 FILLER_20_189
*562 FILLER_20_195
*563 FILLER_20_197
*564 FILLER_20_209
*565 FILLER_20_221
*566 FILLER_20_233
*567 FILLER_20_24
*568 FILLER_20_245
*569 FILLER_20_251
*570 FILLER_20_253
*571 FILLER_20_265
*572 FILLER_20_277
*573 FILLER_20_289
*574 FILLER_20_29
*575 FILLER_20_297
*576 FILLER_20_3
*577 FILLER_20_38
*578 FILLER_20_50
*579 FILLER_20_62
*580 FILLER_20_74
*581 FILLER_20_82
*582 FILLER_20_85
*583 FILLER_20_9
*584 FILLER_20_97
*585 FILLER_21_10
*586 FILLER_21_111
*587 FILLER_21_113
*588 FILLER_21_125
*589 FILLER_21_137
*590 FILLER_21_149
*591 FILLER_21_16
*592 FILLER_21_161
*593 FILLER_21_167
*594 FILLER_21_169
*595 FILLER_21_181
*596 FILLER_21_193
*597 FILLER_21_205
*598 FILLER_21_217
*599 FILLER_21_223
*600 FILLER_21_225
*601 FILLER_21_237
*602 FILLER_21_249
*603 FILLER_21_261
*604 FILLER_21_273
*605 FILLER_21_279
*606 FILLER_21_281
*607 FILLER_21_293
*608 FILLER_21_3
*609 FILLER_21_30
*610 FILLER_21_44
*611 FILLER_21_52
*612 FILLER_21_63
*613 FILLER_21_75
*614 FILLER_21_87
*615 FILLER_21_99
*616 FILLER_22_109
*617 FILLER_22_121
*618 FILLER_22_133
*619 FILLER_22_139
*620 FILLER_22_141
*621 FILLER_22_15
*622 FILLER_22_153
*623 FILLER_22_165
*624 FILLER_22_177
*625 FILLER_22_189
*626 FILLER_22_195
*627 FILLER_22_197
*628 FILLER_22_209
*629 FILLER_22_221
*630 FILLER_22_233
*631 FILLER_22_245
*632 FILLER_22_251
*633 FILLER_22_253
*634 FILLER_22_265
*635 FILLER_22_27
*636 FILLER_22_277
*637 FILLER_22_289
*638 FILLER_22_29
*639 FILLER_22_297
*640 FILLER_22_3
*641 FILLER_22_42
*642 FILLER_22_53
*643 FILLER_22_61
*644 FILLER_22_68
*645 FILLER_22_7
*646 FILLER_22_80
*647 FILLER_22_85
*648 FILLER_22_97
*649 FILLER_23_105
*650 FILLER_23_11
*651 FILLER_23_111
*652 FILLER_23_113
*653 FILLER_23_125
*654 FILLER_23_137
*655 FILLER_23_149
*656 FILLER_23_161
*657 FILLER_23_167
*658 FILLER_23_169
*659 FILLER_23_18
*660 FILLER_23_181
*661 FILLER_23_193
*662 FILLER_23_205
*663 FILLER_23_217
*664 FILLER_23_223
*665 FILLER_23_225
*666 FILLER_23_237
*667 FILLER_23_249
*668 FILLER_23_261
*669 FILLER_23_273
*670 FILLER_23_279
*671 FILLER_23_281
*672 FILLER_23_293
*673 FILLER_23_3
*674 FILLER_23_33
*675 FILLER_23_45
*676 FILLER_23_53
*677 FILLER_23_57
*678 FILLER_23_63
*679 FILLER_23_69
*680 FILLER_23_81
*681 FILLER_23_93
*682 FILLER_24_107
*683 FILLER_24_119
*684 FILLER_24_12
*685 FILLER_24_131
*686 FILLER_24_139
*687 FILLER_24_141
*688 FILLER_24_153
*689 FILLER_24_165
*690 FILLER_24_177
*691 FILLER_24_189
*692 FILLER_24_19
*693 FILLER_24_195
*694 FILLER_24_197
*695 FILLER_24_209
*696 FILLER_24_221
*697 FILLER_24_233
*698 FILLER_24_245
*699 FILLER_24_251
*700 FILLER_24_253
*701 FILLER_24_265
*702 FILLER_24_27
*703 FILLER_24_277
*704 FILLER_24_289
*705 FILLER_24_29
*706 FILLER_24_297
*707 FILLER_24_3
*708 FILLER_24_37
*709 FILLER_24_47
*710 FILLER_24_58
*711 FILLER_24_8
*712 FILLER_24_80
*713 FILLER_24_95
*714 FILLER_25_101
*715 FILLER_25_109
*716 FILLER_25_11
*717 FILLER_25_113
*718 FILLER_25_125
*719 FILLER_25_137
*720 FILLER_25_149
*721 FILLER_25_161
*722 FILLER_25_167
*723 FILLER_25_169
*724 FILLER_25_18
*725 FILLER_25_181
*726 FILLER_25_193
*727 FILLER_25_205
*728 FILLER_25_217
*729 FILLER_25_223
*730 FILLER_25_225
*731 FILLER_25_237
*732 FILLER_25_249
*733 FILLER_25_261
*734 FILLER_25_273
*735 FILLER_25_279
*736 FILLER_25_281
*737 FILLER_25_293
*738 FILLER_25_3
*739 FILLER_25_30
*740 FILLER_25_42
*741 FILLER_25_54
*742 FILLER_25_65
*743 FILLER_25_7
*744 FILLER_25_77
*745 FILLER_25_89
*746 FILLER_26_109
*747 FILLER_26_121
*748 FILLER_26_133
*749 FILLER_26_139
*750 FILLER_26_141
*751 FILLER_26_153
*752 FILLER_26_165
*753 FILLER_26_177
*754 FILLER_26_18
*755 FILLER_26_189
*756 FILLER_26_195
*757 FILLER_26_197
*758 FILLER_26_209
*759 FILLER_26_221
*760 FILLER_26_233
*761 FILLER_26_24
*762 FILLER_26_245
*763 FILLER_26_251
*764 FILLER_26_253
*765 FILLER_26_265
*766 FILLER_26_277
*767 FILLER_26_289
*768 FILLER_26_29
*769 FILLER_26_297
*770 FILLER_26_41
*771 FILLER_26_50
*772 FILLER_26_6
*773 FILLER_26_62
*774 FILLER_26_70
*775 FILLER_26_80
*776 FILLER_26_85
*777 FILLER_26_97
*778 FILLER_27_10
*779 FILLER_27_109
*780 FILLER_27_113
*781 FILLER_27_125
*782 FILLER_27_137
*783 FILLER_27_149
*784 FILLER_27_16
*785 FILLER_27_161
*786 FILLER_27_167
*787 FILLER_27_169
*788 FILLER_27_181
*789 FILLER_27_193
*790 FILLER_27_205
*791 FILLER_27_217
*792 FILLER_27_22
*793 FILLER_27_223
*794 FILLER_27_225
*795 FILLER_27_237
*796 FILLER_27_249
*797 FILLER_27_261
*798 FILLER_27_273
*799 FILLER_27_279
*800 FILLER_27_281
*801 FILLER_27_29
*802 FILLER_27_293
*803 FILLER_27_3
*804 FILLER_27_33
*805 FILLER_27_38
*806 FILLER_27_50
*807 FILLER_27_57
*808 FILLER_27_69
*809 FILLER_27_77
*810 FILLER_27_85
*811 FILLER_27_97
*812 FILLER_28_10
*813 FILLER_28_109
*814 FILLER_28_121
*815 FILLER_28_133
*816 FILLER_28_139
*817 FILLER_28_141
*818 FILLER_28_153
*819 FILLER_28_165
*820 FILLER_28_177
*821 FILLER_28_189
*822 FILLER_28_195
*823 FILLER_28_197
*824 FILLER_28_209
*825 FILLER_28_22
*826 FILLER_28_221
*827 FILLER_28_233
*828 FILLER_28_245
*829 FILLER_28_251
*830 FILLER_28_253
*831 FILLER_28_265
*832 FILLER_28_277
*833 FILLER_28_289
*834 FILLER_28_297
*835 FILLER_28_3
*836 FILLER_28_35
*837 FILLER_28_47
*838 FILLER_28_59
*839 FILLER_28_71
*840 FILLER_28_83
*841 FILLER_28_85
*842 FILLER_28_97
*843 FILLER_29_110
*844 FILLER_29_113
*845 FILLER_29_125
*846 FILLER_29_137
*847 FILLER_29_149
*848 FILLER_29_15
*849 FILLER_29_161
*850 FILLER_29_167
*851 FILLER_29_169
*852 FILLER_29_181
*853 FILLER_29_193
*854 FILLER_29_205
*855 FILLER_29_217
*856 FILLER_29_223
*857 FILLER_29_225
*858 FILLER_29_23
*859 FILLER_29_237
*860 FILLER_29_249
*861 FILLER_29_261
*862 FILLER_29_273
*863 FILLER_29_279
*864 FILLER_29_281
*865 FILLER_29_293
*866 FILLER_29_3
*867 FILLER_29_34
*868 FILLER_29_46
*869 FILLER_29_54
*870 FILLER_29_57
*871 FILLER_29_69
*872 FILLER_29_77
*873 FILLER_29_86
*874 FILLER_29_98
*875 FILLER_2_109
*876 FILLER_2_121
*877 FILLER_2_133
*878 FILLER_2_139
*879 FILLER_2_141
*880 FILLER_2_153
*881 FILLER_2_165
*882 FILLER_2_177
*883 FILLER_2_189
*884 FILLER_2_19
*885 FILLER_2_195
*886 FILLER_2_197
*887 FILLER_2_209
*888 FILLER_2_221
*889 FILLER_2_233
*890 FILLER_2_245
*891 FILLER_2_251
*892 FILLER_2_253
*893 FILLER_2_265
*894 FILLER_2_27
*895 FILLER_2_277
*896 FILLER_2_289
*897 FILLER_2_297
*898 FILLER_2_45
*899 FILLER_2_54
*900 FILLER_2_67
*901 FILLER_2_79
*902 FILLER_2_83
*903 FILLER_2_85
*904 FILLER_2_97
*905 FILLER_30_109
*906 FILLER_30_121
*907 FILLER_30_133
*908 FILLER_30_139
*909 FILLER_30_141
*910 FILLER_30_15
*911 FILLER_30_153
*912 FILLER_30_165
*913 FILLER_30_177
*914 FILLER_30_189
*915 FILLER_30_195
*916 FILLER_30_197
*917 FILLER_30_209
*918 FILLER_30_221
*919 FILLER_30_233
*920 FILLER_30_24
*921 FILLER_30_245
*922 FILLER_30_251
*923 FILLER_30_253
*924 FILLER_30_265
*925 FILLER_30_277
*926 FILLER_30_289
*927 FILLER_30_297
*928 FILLER_30_3
*929 FILLER_30_35
*930 FILLER_30_47
*931 FILLER_30_59
*932 FILLER_30_68
*933 FILLER_30_75
*934 FILLER_30_83
*935 FILLER_30_85
*936 FILLER_30_97
*937 FILLER_31_109
*938 FILLER_31_113
*939 FILLER_31_125
*940 FILLER_31_137
*941 FILLER_31_149
*942 FILLER_31_161
*943 FILLER_31_167
*944 FILLER_31_169
*945 FILLER_31_18
*946 FILLER_31_181
*947 FILLER_31_193
*948 FILLER_31_205
*949 FILLER_31_217
*950 FILLER_31_22
*951 FILLER_31_223
*952 FILLER_31_225
*953 FILLER_31_237
*954 FILLER_31_249
*955 FILLER_31_26
*956 FILLER_31_261
*957 FILLER_31_273
*958 FILLER_31_279
*959 FILLER_31_281
*960 FILLER_31_293
*961 FILLER_31_3
*962 FILLER_31_40
*963 FILLER_31_52
*964 FILLER_31_57
*965 FILLER_31_7
*966 FILLER_31_72
*967 FILLER_31_80
*968 FILLER_31_85
*969 FILLER_31_97
*970 FILLER_32_109
*971 FILLER_32_121
*972 FILLER_32_133
*973 FILLER_32_139
*974 FILLER_32_141
*975 FILLER_32_153
*976 FILLER_32_165
*977 FILLER_32_177
*978 FILLER_32_189
*979 FILLER_32_195
*980 FILLER_32_197
*981 FILLER_32_209
*982 FILLER_32_21
*983 FILLER_32_221
*984 FILLER_32_233
*985 FILLER_32_245
*986 FILLER_32_251
*987 FILLER_32_253
*988 FILLER_32_265
*989 FILLER_32_27
*990 FILLER_32_277
*991 FILLER_32_289
*992 FILLER_32_29
*993 FILLER_32_297
*994 FILLER_32_3
*995 FILLER_32_36
*996 FILLER_32_48
*997 FILLER_32_60
*998 FILLER_32_72
*999 FILLER_32_8
*1000 FILLER_32_85
*1001 FILLER_32_97
*1002 FILLER_33_105
*1003 FILLER_33_111
*1004 FILLER_33_113
*1005 FILLER_33_12
*1006 FILLER_33_125
*1007 FILLER_33_137
*1008 FILLER_33_149
*1009 FILLER_33_161
*1010 FILLER_33_167
*1011 FILLER_33_169
*1012 FILLER_33_181
*1013 FILLER_33_193
*1014 FILLER_33_205
*1015 FILLER_33_21
*1016 FILLER_33_217
*1017 FILLER_33_223
*1018 FILLER_33_225
*1019 FILLER_33_237
*1020 FILLER_33_249
*1021 FILLER_33_261
*1022 FILLER_33_27
*1023 FILLER_33_273
*1024 FILLER_33_279
*1025 FILLER_33_281
*1026 FILLER_33_293
*1027 FILLER_33_35
*1028 FILLER_33_46
*1029 FILLER_33_54
*1030 FILLER_33_57
*1031 FILLER_33_69
*1032 FILLER_33_81
*1033 FILLER_33_93
*1034 FILLER_34_109
*1035 FILLER_34_121
*1036 FILLER_34_133
*1037 FILLER_34_139
*1038 FILLER_34_141
*1039 FILLER_34_153
*1040 FILLER_34_165
*1041 FILLER_34_17
*1042 FILLER_34_177
*1043 FILLER_34_189
*1044 FILLER_34_195
*1045 FILLER_34_197
*1046 FILLER_34_209
*1047 FILLER_34_22
*1048 FILLER_34_221
*1049 FILLER_34_233
*1050 FILLER_34_245
*1051 FILLER_34_251
*1052 FILLER_34_253
*1053 FILLER_34_265
*1054 FILLER_34_277
*1055 FILLER_34_289
*1056 FILLER_34_297
*1057 FILLER_34_3
*1058 FILLER_34_36
*1059 FILLER_34_48
*1060 FILLER_34_60
*1061 FILLER_34_72
*1062 FILLER_34_85
*1063 FILLER_34_9
*1064 FILLER_34_97
*1065 FILLER_35_105
*1066 FILLER_35_111
*1067 FILLER_35_113
*1068 FILLER_35_125
*1069 FILLER_35_137
*1070 FILLER_35_149
*1071 FILLER_35_161
*1072 FILLER_35_167
*1073 FILLER_35_169
*1074 FILLER_35_18
*1075 FILLER_35_181
*1076 FILLER_35_193
*1077 FILLER_35_205
*1078 FILLER_35_217
*1079 FILLER_35_223
*1080 FILLER_35_225
*1081 FILLER_35_237
*1082 FILLER_35_249
*1083 FILLER_35_25
*1084 FILLER_35_261
*1085 FILLER_35_273
*1086 FILLER_35_279
*1087 FILLER_35_281
*1088 FILLER_35_293
*1089 FILLER_35_3
*1090 FILLER_35_32
*1091 FILLER_35_44
*1092 FILLER_35_57
*1093 FILLER_35_69
*1094 FILLER_35_81
*1095 FILLER_35_93
*1096 FILLER_36_109
*1097 FILLER_36_121
*1098 FILLER_36_133
*1099 FILLER_36_139
*1100 FILLER_36_141
*1101 FILLER_36_15
*1102 FILLER_36_153
*1103 FILLER_36_165
*1104 FILLER_36_177
*1105 FILLER_36_189
*1106 FILLER_36_195
*1107 FILLER_36_197
*1108 FILLER_36_209
*1109 FILLER_36_221
*1110 FILLER_36_233
*1111 FILLER_36_245
*1112 FILLER_36_251
*1113 FILLER_36_253
*1114 FILLER_36_265
*1115 FILLER_36_27
*1116 FILLER_36_277
*1117 FILLER_36_289
*1118 FILLER_36_297
*1119 FILLER_36_3
*1120 FILLER_36_37
*1121 FILLER_36_49
*1122 FILLER_36_61
*1123 FILLER_36_73
*1124 FILLER_36_81
*1125 FILLER_36_85
*1126 FILLER_36_97
*1127 FILLER_37_105
*1128 FILLER_37_111
*1129 FILLER_37_113
*1130 FILLER_37_125
*1131 FILLER_37_137
*1132 FILLER_37_149
*1133 FILLER_37_15
*1134 FILLER_37_161
*1135 FILLER_37_167
*1136 FILLER_37_169
*1137 FILLER_37_181
*1138 FILLER_37_193
*1139 FILLER_37_205
*1140 FILLER_37_217
*1141 FILLER_37_223
*1142 FILLER_37_225
*1143 FILLER_37_237
*1144 FILLER_37_249
*1145 FILLER_37_261
*1146 FILLER_37_27
*1147 FILLER_37_273
*1148 FILLER_37_279
*1149 FILLER_37_281
*1150 FILLER_37_293
*1151 FILLER_37_3
*1152 FILLER_37_35
*1153 FILLER_37_39
*1154 FILLER_37_51
*1155 FILLER_37_55
*1156 FILLER_37_57
*1157 FILLER_37_69
*1158 FILLER_37_81
*1159 FILLER_37_93
*1160 FILLER_38_109
*1161 FILLER_38_11
*1162 FILLER_38_121
*1163 FILLER_38_133
*1164 FILLER_38_139
*1165 FILLER_38_141
*1166 FILLER_38_153
*1167 FILLER_38_165
*1168 FILLER_38_177
*1169 FILLER_38_189
*1170 FILLER_38_195
*1171 FILLER_38_197
*1172 FILLER_38_209
*1173 FILLER_38_221
*1174 FILLER_38_23
*1175 FILLER_38_233
*1176 FILLER_38_245
*1177 FILLER_38_251
*1178 FILLER_38_253
*1179 FILLER_38_265
*1180 FILLER_38_27
*1181 FILLER_38_277
*1182 FILLER_38_289
*1183 FILLER_38_29
*1184 FILLER_38_297
*1185 FILLER_38_3
*1186 FILLER_38_33
*1187 FILLER_38_41
*1188 FILLER_38_49
*1189 FILLER_38_56
*1190 FILLER_38_68
*1191 FILLER_38_80
*1192 FILLER_38_85
*1193 FILLER_38_97
*1194 FILLER_39_105
*1195 FILLER_39_11
*1196 FILLER_39_111
*1197 FILLER_39_113
*1198 FILLER_39_125
*1199 FILLER_39_137
*1200 FILLER_39_149
*1201 FILLER_39_161
*1202 FILLER_39_167
*1203 FILLER_39_169
*1204 FILLER_39_181
*1205 FILLER_39_19
*1206 FILLER_39_193
*1207 FILLER_39_205
*1208 FILLER_39_217
*1209 FILLER_39_223
*1210 FILLER_39_225
*1211 FILLER_39_237
*1212 FILLER_39_249
*1213 FILLER_39_261
*1214 FILLER_39_273
*1215 FILLER_39_279
*1216 FILLER_39_281
*1217 FILLER_39_293
*1218 FILLER_39_3
*1219 FILLER_39_31
*1220 FILLER_39_43
*1221 FILLER_39_55
*1222 FILLER_39_57
*1223 FILLER_39_69
*1224 FILLER_39_81
*1225 FILLER_39_93
*1226 FILLER_3_103
*1227 FILLER_3_111
*1228 FILLER_3_113
*1229 FILLER_3_125
*1230 FILLER_3_137
*1231 FILLER_3_149
*1232 FILLER_3_161
*1233 FILLER_3_167
*1234 FILLER_3_169
*1235 FILLER_3_181
*1236 FILLER_3_19
*1237 FILLER_3_193
*1238 FILLER_3_205
*1239 FILLER_3_217
*1240 FILLER_3_223
*1241 FILLER_3_225
*1242 FILLER_3_237
*1243 FILLER_3_249
*1244 FILLER_3_261
*1245 FILLER_3_27
*1246 FILLER_3_273
*1247 FILLER_3_279
*1248 FILLER_3_281
*1249 FILLER_3_293
*1250 FILLER_3_45
*1251 FILLER_3_53
*1252 FILLER_3_57
*1253 FILLER_3_63
*1254 FILLER_3_67
*1255 FILLER_3_79
*1256 FILLER_3_91
*1257 FILLER_40_109
*1258 FILLER_40_121
*1259 FILLER_40_13
*1260 FILLER_40_133
*1261 FILLER_40_139
*1262 FILLER_40_141
*1263 FILLER_40_153
*1264 FILLER_40_165
*1265 FILLER_40_177
*1266 FILLER_40_189
*1267 FILLER_40_195
*1268 FILLER_40_197
*1269 FILLER_40_209
*1270 FILLER_40_221
*1271 FILLER_40_233
*1272 FILLER_40_245
*1273 FILLER_40_25
*1274 FILLER_40_251
*1275 FILLER_40_253
*1276 FILLER_40_265
*1277 FILLER_40_277
*1278 FILLER_40_289
*1279 FILLER_40_29
*1280 FILLER_40_297
*1281 FILLER_40_3
*1282 FILLER_40_35
*1283 FILLER_40_41
*1284 FILLER_40_53
*1285 FILLER_40_65
*1286 FILLER_40_77
*1287 FILLER_40_83
*1288 FILLER_40_85
*1289 FILLER_40_97
*1290 FILLER_41_108
*1291 FILLER_41_113
*1292 FILLER_41_125
*1293 FILLER_41_137
*1294 FILLER_41_14
*1295 FILLER_41_149
*1296 FILLER_41_161
*1297 FILLER_41_167
*1298 FILLER_41_169
*1299 FILLER_41_181
*1300 FILLER_41_193
*1301 FILLER_41_20
*1302 FILLER_41_205
*1303 FILLER_41_217
*1304 FILLER_41_223
*1305 FILLER_41_225
*1306 FILLER_41_237
*1307 FILLER_41_249
*1308 FILLER_41_26
*1309 FILLER_41_261
*1310 FILLER_41_273
*1311 FILLER_41_279
*1312 FILLER_41_281
*1313 FILLER_41_293
*1314 FILLER_41_3
*1315 FILLER_41_34
*1316 FILLER_41_40
*1317 FILLER_41_46
*1318 FILLER_41_54
*1319 FILLER_41_60
*1320 FILLER_41_72
*1321 FILLER_41_84
*1322 FILLER_41_96
*1323 FILLER_42_109
*1324 FILLER_42_121
*1325 FILLER_42_133
*1326 FILLER_42_139
*1327 FILLER_42_141
*1328 FILLER_42_153
*1329 FILLER_42_165
*1330 FILLER_42_177
*1331 FILLER_42_189
*1332 FILLER_42_195
*1333 FILLER_42_197
*1334 FILLER_42_20
*1335 FILLER_42_209
*1336 FILLER_42_221
*1337 FILLER_42_233
*1338 FILLER_42_24
*1339 FILLER_42_245
*1340 FILLER_42_251
*1341 FILLER_42_253
*1342 FILLER_42_265
*1343 FILLER_42_277
*1344 FILLER_42_289
*1345 FILLER_42_297
*1346 FILLER_42_3
*1347 FILLER_42_34
*1348 FILLER_42_46
*1349 FILLER_42_58
*1350 FILLER_42_70
*1351 FILLER_42_8
*1352 FILLER_42_82
*1353 FILLER_42_85
*1354 FILLER_42_97
*1355 FILLER_43_105
*1356 FILLER_43_111
*1357 FILLER_43_113
*1358 FILLER_43_125
*1359 FILLER_43_137
*1360 FILLER_43_149
*1361 FILLER_43_161
*1362 FILLER_43_167
*1363 FILLER_43_169
*1364 FILLER_43_181
*1365 FILLER_43_193
*1366 FILLER_43_205
*1367 FILLER_43_21
*1368 FILLER_43_217
*1369 FILLER_43_223
*1370 FILLER_43_225
*1371 FILLER_43_237
*1372 FILLER_43_249
*1373 FILLER_43_261
*1374 FILLER_43_273
*1375 FILLER_43_279
*1376 FILLER_43_281
*1377 FILLER_43_29
*1378 FILLER_43_293
*1379 FILLER_43_3
*1380 FILLER_43_34
*1381 FILLER_43_46
*1382 FILLER_43_54
*1383 FILLER_43_57
*1384 FILLER_43_69
*1385 FILLER_43_81
*1386 FILLER_43_9
*1387 FILLER_43_93
*1388 FILLER_44_109
*1389 FILLER_44_121
*1390 FILLER_44_133
*1391 FILLER_44_139
*1392 FILLER_44_141
*1393 FILLER_44_15
*1394 FILLER_44_153
*1395 FILLER_44_165
*1396 FILLER_44_177
*1397 FILLER_44_189
*1398 FILLER_44_195
*1399 FILLER_44_197
*1400 FILLER_44_209
*1401 FILLER_44_221
*1402 FILLER_44_233
*1403 FILLER_44_245
*1404 FILLER_44_251
*1405 FILLER_44_253
*1406 FILLER_44_265
*1407 FILLER_44_27
*1408 FILLER_44_277
*1409 FILLER_44_289
*1410 FILLER_44_29
*1411 FILLER_44_297
*1412 FILLER_44_3
*1413 FILLER_44_37
*1414 FILLER_44_46
*1415 FILLER_44_58
*1416 FILLER_44_70
*1417 FILLER_44_82
*1418 FILLER_44_85
*1419 FILLER_44_97
*1420 FILLER_45_105
*1421 FILLER_45_111
*1422 FILLER_45_113
*1423 FILLER_45_12
*1424 FILLER_45_125
*1425 FILLER_45_137
*1426 FILLER_45_149
*1427 FILLER_45_161
*1428 FILLER_45_167
*1429 FILLER_45_169
*1430 FILLER_45_181
*1431 FILLER_45_193
*1432 FILLER_45_205
*1433 FILLER_45_217
*1434 FILLER_45_223
*1435 FILLER_45_225
*1436 FILLER_45_237
*1437 FILLER_45_249
*1438 FILLER_45_25
*1439 FILLER_45_261
*1440 FILLER_45_273
*1441 FILLER_45_279
*1442 FILLER_45_281
*1443 FILLER_45_293
*1444 FILLER_45_3
*1445 FILLER_45_35
*1446 FILLER_45_47
*1447 FILLER_45_55
*1448 FILLER_45_57
*1449 FILLER_45_69
*1450 FILLER_45_81
*1451 FILLER_45_93
*1452 FILLER_46_109
*1453 FILLER_46_121
*1454 FILLER_46_133
*1455 FILLER_46_139
*1456 FILLER_46_141
*1457 FILLER_46_15
*1458 FILLER_46_153
*1459 FILLER_46_165
*1460 FILLER_46_177
*1461 FILLER_46_189
*1462 FILLER_46_195
*1463 FILLER_46_197
*1464 FILLER_46_209
*1465 FILLER_46_221
*1466 FILLER_46_233
*1467 FILLER_46_245
*1468 FILLER_46_251
*1469 FILLER_46_253
*1470 FILLER_46_265
*1471 FILLER_46_27
*1472 FILLER_46_277
*1473 FILLER_46_289
*1474 FILLER_46_29
*1475 FILLER_46_297
*1476 FILLER_46_3
*1477 FILLER_46_41
*1478 FILLER_46_53
*1479 FILLER_46_65
*1480 FILLER_46_77
*1481 FILLER_46_83
*1482 FILLER_46_85
*1483 FILLER_46_97
*1484 FILLER_47_105
*1485 FILLER_47_11
*1486 FILLER_47_111
*1487 FILLER_47_113
*1488 FILLER_47_125
*1489 FILLER_47_137
*1490 FILLER_47_149
*1491 FILLER_47_161
*1492 FILLER_47_167
*1493 FILLER_47_169
*1494 FILLER_47_17
*1495 FILLER_47_181
*1496 FILLER_47_193
*1497 FILLER_47_205
*1498 FILLER_47_217
*1499 FILLER_47_223
*1500 FILLER_47_225
*1501 FILLER_47_237
*1502 FILLER_47_24
*1503 FILLER_47_249
*1504 FILLER_47_261
*1505 FILLER_47_273
*1506 FILLER_47_279
*1507 FILLER_47_281
*1508 FILLER_47_293
*1509 FILLER_47_3
*1510 FILLER_47_32
*1511 FILLER_47_42
*1512 FILLER_47_54
*1513 FILLER_47_57
*1514 FILLER_47_69
*1515 FILLER_47_81
*1516 FILLER_47_93
*1517 FILLER_48_109
*1518 FILLER_48_121
*1519 FILLER_48_133
*1520 FILLER_48_139
*1521 FILLER_48_141
*1522 FILLER_48_153
*1523 FILLER_48_165
*1524 FILLER_48_17
*1525 FILLER_48_177
*1526 FILLER_48_189
*1527 FILLER_48_195
*1528 FILLER_48_197
*1529 FILLER_48_209
*1530 FILLER_48_221
*1531 FILLER_48_233
*1532 FILLER_48_245
*1533 FILLER_48_25
*1534 FILLER_48_251
*1535 FILLER_48_253
*1536 FILLER_48_265
*1537 FILLER_48_277
*1538 FILLER_48_289
*1539 FILLER_48_29
*1540 FILLER_48_297
*1541 FILLER_48_3
*1542 FILLER_48_38
*1543 FILLER_48_50
*1544 FILLER_48_62
*1545 FILLER_48_74
*1546 FILLER_48_82
*1547 FILLER_48_85
*1548 FILLER_48_9
*1549 FILLER_48_97
*1550 FILLER_49_105
*1551 FILLER_49_111
*1552 FILLER_49_113
*1553 FILLER_49_125
*1554 FILLER_49_137
*1555 FILLER_49_149
*1556 FILLER_49_15
*1557 FILLER_49_161
*1558 FILLER_49_167
*1559 FILLER_49_169
*1560 FILLER_49_181
*1561 FILLER_49_193
*1562 FILLER_49_205
*1563 FILLER_49_217
*1564 FILLER_49_223
*1565 FILLER_49_225
*1566 FILLER_49_237
*1567 FILLER_49_249
*1568 FILLER_49_261
*1569 FILLER_49_27
*1570 FILLER_49_273
*1571 FILLER_49_279
*1572 FILLER_49_281
*1573 FILLER_49_293
*1574 FILLER_49_3
*1575 FILLER_49_39
*1576 FILLER_49_51
*1577 FILLER_49_55
*1578 FILLER_49_57
*1579 FILLER_49_69
*1580 FILLER_49_81
*1581 FILLER_49_93
*1582 FILLER_4_109
*1583 FILLER_4_121
*1584 FILLER_4_133
*1585 FILLER_4_139
*1586 FILLER_4_141
*1587 FILLER_4_153
*1588 FILLER_4_165
*1589 FILLER_4_177
*1590 FILLER_4_189
*1591 FILLER_4_195
*1592 FILLER_4_197
*1593 FILLER_4_209
*1594 FILLER_4_22
*1595 FILLER_4_221
*1596 FILLER_4_233
*1597 FILLER_4_245
*1598 FILLER_4_251
*1599 FILLER_4_253
*1600 FILLER_4_265
*1601 FILLER_4_277
*1602 FILLER_4_289
*1603 FILLER_4_29
*1604 FILLER_4_297
*1605 FILLER_4_3
*1606 FILLER_4_53
*1607 FILLER_4_65
*1608 FILLER_4_77
*1609 FILLER_4_83
*1610 FILLER_4_85
*1611 FILLER_4_97
*1612 FILLER_50_109
*1613 FILLER_50_121
*1614 FILLER_50_133
*1615 FILLER_50_139
*1616 FILLER_50_141
*1617 FILLER_50_153
*1618 FILLER_50_165
*1619 FILLER_50_177
*1620 FILLER_50_189
*1621 FILLER_50_195
*1622 FILLER_50_197
*1623 FILLER_50_209
*1624 FILLER_50_21
*1625 FILLER_50_221
*1626 FILLER_50_233
*1627 FILLER_50_245
*1628 FILLER_50_251
*1629 FILLER_50_253
*1630 FILLER_50_265