*SPEF "ieee 1481-1999"
*DESIGN "user_module_341164910646919762"
*DATE "11:11:11 Fri 11 11, 1111"
*VENDOR "OpenRCX"
*PROGRAM "Parallel Extraction"
*VERSION "1.0"
*DESIGN_FLOW "NAME_SCOPE LOCAL" "PIN_CAP NONE"
*DIVIDER /
*DELIMITER :
*BUS_DELIMITER []
*T_UNIT 1 NS
*C_UNIT 1 PF
*R_UNIT 1 OHM
*L_UNIT 1 HENRY

*NAME_MAP
*1 io_in[0]
*2 io_in[1]
*3 io_in[2]
*4 io_in[3]
*5 io_in[4]
*6 io_in[5]
*7 io_in[6]
*8 io_in[7]
*9 io_out[0]
*10 io_out[1]
*11 io_out[2]
*12 io_out[3]
*13 io_out[4]
*14 io_out[5]
*15 io_out[6]
*16 io_out[7]
*19 _000_
*20 _001_
*21 _002_
*22 _003_
*23 _004_
*24 _005_
*25 _006_
*26 _007_
*27 _008_
*28 _009_
*29 _010_
*30 _011_
*31 _012_
*32 _013_
*33 _014_
*34 _015_
*35 _016_
*36 _017_
*37 _018_
*38 _019_
*39 _020_
*40 _021_
*41 _022_
*42 _023_
*43 _024_
*44 _025_
*45 _026_
*46 _027_
*47 _028_
*48 _029_
*49 _030_
*50 _031_
*51 _032_
*52 _033_
*53 _034_
*54 _035_
*55 _036_
*56 _037_
*57 _038_
*58 _039_
*59 _040_
*60 _041_
*61 _042_
*62 _043_
*63 _044_
*64 _045_
*65 _046_
*66 _047_
*67 _048_
*68 _049_
*69 _050_
*70 _051_
*71 _052_
*72 _053_
*73 _054_
*74 _055_
*75 clknet_0__037_
*76 clknet_0__045_
*77 clknet_0_fibonacci_inst\.clk
*78 clknet_0_io_in[0]
*79 clknet_1_0__leaf__037_
*80 clknet_1_0__leaf__045_
*81 clknet_1_0__leaf_io_in[0]
*82 clknet_1_1__leaf__037_
*83 clknet_1_1__leaf__045_
*84 clknet_1_1__leaf_io_in[0]
*85 clknet_3_0__leaf_fibonacci_inst\.clk
*86 clknet_3_1__leaf_fibonacci_inst\.clk
*87 clknet_3_2__leaf_fibonacci_inst\.clk
*88 clknet_3_3__leaf_fibonacci_inst\.clk
*89 clknet_3_4__leaf_fibonacci_inst\.clk
*90 clknet_3_5__leaf_fibonacci_inst\.clk
*91 clknet_3_6__leaf_fibonacci_inst\.clk
*92 clknet_3_7__leaf_fibonacci_inst\.clk
*93 fibonacci_inst\.clk
*94 fibonacci_inst\.digit\[0\]
*95 fibonacci_inst\.digit\[1\]
*96 fibonacci_inst\.digit\[2\]
*97 fibonacci_inst\.digit\[3\]
*98 fibonacci_inst\.fib\.a\[10\]
*99 fibonacci_inst\.fib\.a\[11\]
*100 fibonacci_inst\.fib\.a\[12\]
*101 fibonacci_inst\.fib\.a\[13\]
*102 fibonacci_inst\.fib\.a\[14\]
*103 fibonacci_inst\.fib\.a\[15\]
*104 fibonacci_inst\.fib\.a\[16\]
*105 fibonacci_inst\.fib\.a\[17\]
*106 fibonacci_inst\.fib\.a\[18\]
*107 fibonacci_inst\.fib\.a\[19\]
*108 fibonacci_inst\.fib\.a\[20\]
*109 fibonacci_inst\.fib\.a\[21\]
*110 fibonacci_inst\.fib\.a\[22\]
*111 fibonacci_inst\.fib\.a\[23\]
*112 fibonacci_inst\.fib\.a\[24\]
*113 fibonacci_inst\.fib\.a\[25\]
*114 fibonacci_inst\.fib\.a\[26\]
*115 fibonacci_inst\.fib\.a\[27\]
*116 fibonacci_inst\.fib\.a\[4\]
*117 fibonacci_inst\.fib\.a\[5\]
*118 fibonacci_inst\.fib\.a\[6\]
*119 fibonacci_inst\.fib\.a\[7\]
*120 fibonacci_inst\.fib\.a\[8\]
*121 fibonacci_inst\.fib\.a\[9\]
*122 fibonacci_inst\.fib\.adder\.adder_cin\[0\]
*123 fibonacci_inst\.fib\.adder\.adder_cin\[1\]
*124 fibonacci_inst\.fib\.adder\.adder_cin\[2\]
*125 fibonacci_inst\.fib\.adder\.adder_cin\[3\]
*126 fibonacci_inst\.fib\.adder\.b\[0\]
*127 fibonacci_inst\.fib\.adder\.b\[1\]
*128 fibonacci_inst\.fib\.adder\.b\[2\]
*129 fibonacci_inst\.fib\.adder\.b\[3\]
*130 fibonacci_inst\.fib\.adder\.cout
*131 fibonacci_inst\.fib\.adder\.sum\[0\]
*132 fibonacci_inst\.fib\.adder\.sum\[1\]
*133 fibonacci_inst\.fib\.adder\.sum\[2\]
*134 fibonacci_inst\.fib\.adder\.sum\[3\]
*135 fibonacci_inst\.fib\.b\[10\]
*136 fibonacci_inst\.fib\.b\[11\]
*137 fibonacci_inst\.fib\.b\[12\]
*138 fibonacci_inst\.fib\.b\[13\]
*139 fibonacci_inst\.fib\.b\[14\]
*140 fibonacci_inst\.fib\.b\[15\]
*141 fibonacci_inst\.fib\.b\[16\]
*142 fibonacci_inst\.fib\.b\[17\]
*143 fibonacci_inst\.fib\.b\[18\]
*144 fibonacci_inst\.fib\.b\[19\]
*145 fibonacci_inst\.fib\.b\[20\]
*146 fibonacci_inst\.fib\.b\[21\]
*147 fibonacci_inst\.fib\.b\[22\]
*148 fibonacci_inst\.fib\.b\[23\]
*149 fibonacci_inst\.fib\.b\[24\]
*150 fibonacci_inst\.fib\.b\[25\]
*151 fibonacci_inst\.fib\.b\[26\]
*152 fibonacci_inst\.fib\.b\[27\]
*153 fibonacci_inst\.fib\.b\[4\]
*154 fibonacci_inst\.fib\.b\[5\]
*155 fibonacci_inst\.fib\.b\[6\]
*156 fibonacci_inst\.fib\.b\[7\]
*157 fibonacci_inst\.fib\.b\[8\]
*158 fibonacci_inst\.fib\.b\[9\]
*159 fibonacci_inst\.fib\.lsb_control\[0\]
*160 fibonacci_inst\.fib\.lsb_control\[1\]
*161 fibonacci_inst\.fib\.lsb_control\[2\]
*162 fibonacci_inst\.fib\.lsb_control\[3\]
*163 fibonacci_inst\.fib\.lsb_control\[4\]
*164 fibonacci_inst\.fib\.lsb_control\[5\]
*165 fibonacci_inst\.fib\.lsb_control\[6\]
*166 fibonacci_inst\.fib\.rstn
*167 gold_code_generator\.a\[0\]
*168 gold_code_generator\.a\[10\]
*169 gold_code_generator\.a\[11\]
*170 gold_code_generator\.a\[12\]
*171 gold_code_generator\.a\[1\]
*172 gold_code_generator\.a\[2\]
*173 gold_code_generator\.a\[3\]
*174 gold_code_generator\.a\[4\]
*175 gold_code_generator\.a\[5\]
*176 gold_code_generator\.a\[6\]
*177 gold_code_generator\.a\[7\]
*178 gold_code_generator\.a\[8\]
*179 gold_code_generator\.a\[9\]
*180 gold_code_generator\.b\[0\]
*181 gold_code_generator\.b\[10\]
*182 gold_code_generator\.b\[11\]
*183 gold_code_generator\.b\[12\]
*184 gold_code_generator\.b\[1\]
*185 gold_code_generator\.b\[2\]
*186 gold_code_generator\.b\[3\]
*187 gold_code_generator\.b\[4\]
*188 gold_code_generator\.b\[5\]
*189 gold_code_generator\.b\[6\]
*190 gold_code_generator\.b\[7\]
*191 gold_code_generator\.b\[8\]
*192 gold_code_generator\.b\[9\]
*193 net1
*194 net10
*195 net11
*196 net12
*197 net13
*198 net14
*199 net15
*200 net16
*201 net17
*202 net18
*203 net19
*204 net2
*205 net20
*206 net21
*207 net22
*208 net23
*209 net24
*210 net25
*211 net26
*212 net27
*213 net28
*214 net29
*215 net3
*216 net30
*217 net31
*218 net32
*219 net33
*220 net34
*221 net35
*222 net36
*223 net37
*224 net38
*225 net39
*226 net4
*227 net40
*228 net41
*229 net42
*230 net43
*231 net44
*232 net45
*233 net46
*234 net47
*235 net48
*236 net49
*237 net5
*238 net50
*239 net51
*240 net52
*241 net53
*242 net54
*243 net55
*244 net56
*245 net57
*246 net58
*247 net59
*248 net6
*249 net60
*250 net61
*251 net62
*252 net63
*253 net64
*254 net65
*255 net66
*256 net67
*257 net68
*258 net69
*259 net7
*260 net70
*261 net71
*262 net72
*263 net73
*264 net74
*265 net75
*266 net76
*267 net77
*268 net78
*269 net79
*270 net8
*271 net80
*272 net81
*273 net82
*274 net83
*275 net84
*276 net85
*277 net86
*278 net87
*279 net88
*280 net89
*281 net9
*282 net90
*283 net91
*284 net92
*285 net93
*286 net94
*287 net95
*288 net96
*289 net97
*290 net98
*291 FILLER_0_109
*292 FILLER_0_113
*293 FILLER_0_125
*294 FILLER_0_137
*295 FILLER_0_141
*296 FILLER_0_15
*297 FILLER_0_153
*298 FILLER_0_165
*299 FILLER_0_169
*300 FILLER_0_181
*301 FILLER_0_193
*302 FILLER_0_197
*303 FILLER_0_209
*304 FILLER_0_221
*305 FILLER_0_225
*306 FILLER_0_237
*307 FILLER_0_249
*308 FILLER_0_253
*309 FILLER_0_265
*310 FILLER_0_27
*311 FILLER_0_277
*312 FILLER_0_281
*313 FILLER_0_29
*314 FILLER_0_293
*315 FILLER_0_3
*316 FILLER_0_41
*317 FILLER_0_53
*318 FILLER_0_57
*319 FILLER_0_69
*320 FILLER_0_81
*321 FILLER_0_85
*322 FILLER_0_97
*323 FILLER_10_109
*324 FILLER_10_121
*325 FILLER_10_133
*326 FILLER_10_139
*327 FILLER_10_141
*328 FILLER_10_153
*329 FILLER_10_165
*330 FILLER_10_177
*331 FILLER_10_189
*332 FILLER_10_195
*333 FILLER_10_197
*334 FILLER_10_209
*335 FILLER_10_221
*336 FILLER_10_233
*337 FILLER_10_24
*338 FILLER_10_245
*339 FILLER_10_251
*340 FILLER_10_253
*341 FILLER_10_265
*342 FILLER_10_277
*343 FILLER_10_289
*344 FILLER_10_297
*345 FILLER_10_3
*346 FILLER_10_37
*347 FILLER_10_48
*348 FILLER_10_60
*349 FILLER_10_72
*350 FILLER_10_85
*351 FILLER_10_97
*352 FILLER_11_105
*353 FILLER_11_111
*354 FILLER_11_113
*355 FILLER_11_12
*356 FILLER_11_125
*357 FILLER_11_137
*358 FILLER_11_149
*359 FILLER_11_161
*360 FILLER_11_167
*361 FILLER_11_169
*362 FILLER_11_181
*363 FILLER_11_193
*364 FILLER_11_205
*365 FILLER_11_217
*366 FILLER_11_223
*367 FILLER_11_225
*368 FILLER_11_237
*369 FILLER_11_249
*370 FILLER_11_261
*371 FILLER_11_273
*372 FILLER_11_279
*373 FILLER_11_281
*374 FILLER_11_293
*375 FILLER_11_33
*376 FILLER_11_39
*377 FILLER_11_44
*378 FILLER_11_57
*379 FILLER_11_6
*380 FILLER_11_69
*381 FILLER_11_81
*382 FILLER_11_93
*383 FILLER_12_109
*384 FILLER_12_12
*385 FILLER_12_121
*386 FILLER_12_133
*387 FILLER_12_139
*388 FILLER_12_141
*389 FILLER_12_153
*390 FILLER_12_165
*391 FILLER_12_177
*392 FILLER_12_189
*393 FILLER_12_195
*394 FILLER_12_197
*395 FILLER_12_209
*396 FILLER_12_221
*397 FILLER_12_233
*398 FILLER_12_24
*399 FILLER_12_245
*400 FILLER_12_251
*401 FILLER_12_253
*402 FILLER_12_265
*403 FILLER_12_277
*404 FILLER_12_289
*405 FILLER_12_297
*406 FILLER_12_32
*407 FILLER_12_38
*408 FILLER_12_59
*409 FILLER_12_71
*410 FILLER_12_83
*411 FILLER_12_85
*412 FILLER_12_97
*413 FILLER_13_10
*414 FILLER_13_102
*415 FILLER_13_110
*416 FILLER_13_113
*417 FILLER_13_125
*418 FILLER_13_137
*419 FILLER_13_149
*420 FILLER_13_161
*421 FILLER_13_167
*422 FILLER_13_169
*423 FILLER_13_181
*424 FILLER_13_193
*425 FILLER_13_20
*426 FILLER_13_205
*427 FILLER_13_217
*428 FILLER_13_223
*429 FILLER_13_225
*430 FILLER_13_237
*431 FILLER_13_24
*432 FILLER_13_249
*433 FILLER_13_261
*434 FILLER_13_273
*435 FILLER_13_279
*436 FILLER_13_28
*437 FILLER_13_281
*438 FILLER_13_293
*439 FILLER_13_52
*440 FILLER_13_57
*441 FILLER_13_6
*442 FILLER_13_66
*443 FILLER_13_78
*444 FILLER_13_90
*445 FILLER_14_109
*446 FILLER_14_121
*447 FILLER_14_133
*448 FILLER_14_139
*449 FILLER_14_141
*450 FILLER_14_153
*451 FILLER_14_165
*452 FILLER_14_177
*453 FILLER_14_189
*454 FILLER_14_195
*455 FILLER_14_197
*456 FILLER_14_209
*457 FILLER_14_221
*458 FILLER_14_233
*459 FILLER_14_24
*460 FILLER_14_245
*461 FILLER_14_251
*462 FILLER_14_253
*463 FILLER_14_265
*464 FILLER_14_277
*465 FILLER_14_289
*466 FILLER_14_297
*467 FILLER_14_3
*468 FILLER_14_36
*469 FILLER_14_40
*470 FILLER_14_62
*471 FILLER_14_7
*472 FILLER_14_74
*473 FILLER_14_82
*474 FILLER_14_85
*475 FILLER_14_97
*476 FILLER_15_105
*477 FILLER_15_111
*478 FILLER_15_113
*479 FILLER_15_125
*480 FILLER_15_137
*481 FILLER_15_149
*482 FILLER_15_161
*483 FILLER_15_167
*484 FILLER_15_169
*485 FILLER_15_181
*486 FILLER_15_193
*487 FILLER_15_205
*488 FILLER_15_217
*489 FILLER_15_223
*490 FILLER_15_225
*491 FILLER_15_237
*492 FILLER_15_24
*493 FILLER_15_249
*494 FILLER_15_261
*495 FILLER_15_273
*496 FILLER_15_279
*497 FILLER_15_281
*498 FILLER_15_293
*499 FILLER_15_3
*500 FILLER_15_52
*501 FILLER_15_57
*502 FILLER_15_69
*503 FILLER_15_7
*504 FILLER_15_81
*505 FILLER_15_93
*506 FILLER_16_109
*507 FILLER_16_121
*508 FILLER_16_133
*509 FILLER_16_139
*510 FILLER_16_141
*511 FILLER_16_153
*512 FILLER_16_165
*513 FILLER_16_177
*514 FILLER_16_189
*515 FILLER_16_195
*516 FILLER_16_197
*517 FILLER_16_209
*518 FILLER_16_221
*519 FILLER_16_23
*520 FILLER_16_233
*521 FILLER_16_245
*522 FILLER_16_251
*523 FILLER_16_253
*524 FILLER_16_265
*525 FILLER_16_27
*526 FILLER_16_277
*527 FILLER_16_289
*528 FILLER_16_297
*529 FILLER_16_3
*530 FILLER_16_36
*531 FILLER_16_40
*532 FILLER_16_61
*533 FILLER_16_73
*534 FILLER_16_81
*535 FILLER_16_85
*536 FILLER_16_97
*537 FILLER_17_100
*538 FILLER_17_113
*539 FILLER_17_12
*540 FILLER_17_125
*541 FILLER_17_137
*542 FILLER_17_149
*543 FILLER_17_161
*544 FILLER_17_167
*545 FILLER_17_169
*546 FILLER_17_181
*547 FILLER_17_193
*548 FILLER_17_205
*549 FILLER_17_217
*550 FILLER_17_223
*551 FILLER_17_225
*552 FILLER_17_237
*553 FILLER_17_249
*554 FILLER_17_261
*555 FILLER_17_273
*556 FILLER_17_279
*557 FILLER_17_281
*558 FILLER_17_293
*559 FILLER_17_3
*560 FILLER_17_36
*561 FILLER_17_49
*562 FILLER_17_55
*563 FILLER_17_64
*564 FILLER_17_7
*565 FILLER_17_76
*566 FILLER_17_88
*567 FILLER_18_109
*568 FILLER_18_121
*569 FILLER_18_133
*570 FILLER_18_139
*571 FILLER_18_141
*572 FILLER_18_153
*573 FILLER_18_165
*574 FILLER_18_177
*575 FILLER_18_189
*576 FILLER_18_19
*577 FILLER_18_195
*578 FILLER_18_197
*579 FILLER_18_209
*580 FILLER_18_221
*581 FILLER_18_233
*582 FILLER_18_245
*583 FILLER_18_251
*584 FILLER_18_253
*585 FILLER_18_265
*586 FILLER_18_27
*587 FILLER_18_277
*588 FILLER_18_289
*589 FILLER_18_297
*590 FILLER_18_38
*591 FILLER_18_49
*592 FILLER_18_57
*593 FILLER_18_6
*594 FILLER_18_65
*595 FILLER_18_72
*596 FILLER_18_85
*597 FILLER_18_97
*598 FILLER_19_108
*599 FILLER_19_113
*600 FILLER_19_125
*601 FILLER_19_137
*602 FILLER_19_149
*603 FILLER_19_161
*604 FILLER_19_167
*605 FILLER_19_169
*606 FILLER_19_181
*607 FILLER_19_193
*608 FILLER_19_205
*609 FILLER_19_217
*610 FILLER_19_223
*611 FILLER_19_225
*612 FILLER_19_237
*613 FILLER_19_249
*614 FILLER_19_261
*615 FILLER_19_27
*616 FILLER_19_273
*617 FILLER_19_279
*618 FILLER_19_281
*619 FILLER_19_293
*620 FILLER_19_31
*621 FILLER_19_52
*622 FILLER_19_65
*623 FILLER_19_7
*624 FILLER_19_72
*625 FILLER_19_84
*626 FILLER_19_96
*627 FILLER_1_105
*628 FILLER_1_111
*629 FILLER_1_113
*630 FILLER_1_125
*631 FILLER_1_137
*632 FILLER_1_149
*633 FILLER_1_15
*634 FILLER_1_161
*635 FILLER_1_167
*636 FILLER_1_169
*637 FILLER_1_181
*638 FILLER_1_193
*639 FILLER_1_205
*640 FILLER_1_217
*641 FILLER_1_223
*642 FILLER_1_225
*643 FILLER_1_237
*644 FILLER_1_249
*645 FILLER_1_261
*646 FILLER_1_27
*647 FILLER_1_273
*648 FILLER_1_279
*649 FILLER_1_281
*650 FILLER_1_293
*651 FILLER_1_3
*652 FILLER_1_50
*653 FILLER_1_57
*654 FILLER_1_69
*655 FILLER_1_81
*656 FILLER_1_93
*657 FILLER_20_101
*658 FILLER_20_11
*659 FILLER_20_113
*660 FILLER_20_125
*661 FILLER_20_137
*662 FILLER_20_141
*663 FILLER_20_153
*664 FILLER_20_165
*665 FILLER_20_17
*666 FILLER_20_177
*667 FILLER_20_189
*668 FILLER_20_195
*669 FILLER_20_197
*670 FILLER_20_209
*671 FILLER_20_221
*672 FILLER_20_23
*673 FILLER_20_233
*674 FILLER_20_245
*675 FILLER_20_251
*676 FILLER_20_253
*677 FILLER_20_265
*678 FILLER_20_27
*679 FILLER_20_277
*680 FILLER_20_289
*681 FILLER_20_29
*682 FILLER_20_297
*683 FILLER_20_3
*684 FILLER_20_38
*685 FILLER_20_62
*686 FILLER_20_70
*687 FILLER_20_80
*688 FILLER_20_93
*689 FILLER_21_105
*690 FILLER_21_111
*691 FILLER_21_113
*692 FILLER_21_125
*693 FILLER_21_137
*694 FILLER_21_149
*695 FILLER_21_161
*696 FILLER_21_167
*697 FILLER_21_169
*698 FILLER_21_181
*699 FILLER_21_193
*700 FILLER_21_205
*701 FILLER_21_217
*702 FILLER_21_223
*703 FILLER_21_225
*704 FILLER_21_237
*705 FILLER_21_249
*706 FILLER_21_25
*707 FILLER_21_261
*708 FILLER_21_273
*709 FILLER_21_279
*710 FILLER_21_281
*711 FILLER_21_293
*712 FILLER_21_3
*713 FILLER_21_51
*714 FILLER_21_55
*715 FILLER_21_65
*716 FILLER_21_93
*717 FILLER_22_108
*718 FILLER_22_120
*719 FILLER_22_132
*720 FILLER_22_141
*721 FILLER_22_153
*722 FILLER_22_165
*723 FILLER_22_177
*724 FILLER_22_189
*725 FILLER_22_195
*726 FILLER_22_197
*727 FILLER_22_209
*728 FILLER_22_221
*729 FILLER_22_233
*730 FILLER_22_24
*731 FILLER_22_245
*732 FILLER_22_251
*733 FILLER_22_253
*734 FILLER_22_265
*735 FILLER_22_277
*736 FILLER_22_289
*737 FILLER_22_297
*738 FILLER_22_3
*739 FILLER_22_38
*740 FILLER_22_50
*741 FILLER_22_7
*742 FILLER_22_76
*743 FILLER_22_85
*744 FILLER_23_104
*745 FILLER_23_12
*746 FILLER_23_121
*747 FILLER_23_133
*748 FILLER_23_145
*749 FILLER_23_157
*750 FILLER_23_165
*751 FILLER_23_169
*752 FILLER_23_181
*753 FILLER_23_193
*754 FILLER_23_205
*755 FILLER_23_217
*756 FILLER_23_223
*757 FILLER_23_225
*758 FILLER_23_237
*759 FILLER_23_249
*760 FILLER_23_261
*761 FILLER_23_273
*762 FILLER_23_279
*763 FILLER_23_281
*764 FILLER_23_293
*765 FILLER_23_3
*766 FILLER_23_36
*767 FILLER_23_52
*768 FILLER_23_57
*769 FILLER_23_79
*770 FILLER_23_83
*771 FILLER_24_120
*772 FILLER_24_132
*773 FILLER_24_141
*774 FILLER_24_153
*775 FILLER_24_165
*776 FILLER_24_177
*777 FILLER_24_18
*778 FILLER_24_189
*779 FILLER_24_195
*780 FILLER_24_197
*781 FILLER_24_209
*782 FILLER_24_221
*783 FILLER_24_233
*784 FILLER_24_245
*785 FILLER_24_251
*786 FILLER_24_253
*787 FILLER_24_26
*788 FILLER_24_265
*789 FILLER_24_277
*790 FILLER_24_289
*791 FILLER_24_297
*792 FILLER_24_3
*793 FILLER_24_38
*794 FILLER_24_46
*795 FILLER_24_56
*796 FILLER_24_80
*797 FILLER_24_93
*798 FILLER_24_99
*799 FILLER_25_105
*800 FILLER_25_111
*801 FILLER_25_133
*802 FILLER_25_145
*803 FILLER_25_157
*804 FILLER_25_16
*805 FILLER_25_165
*806 FILLER_25_169
*807 FILLER_25_181
*808 FILLER_25_193
*809 FILLER_25_205
*810 FILLER_25_217
*811 FILLER_25_223
*812 FILLER_25_225
*813 FILLER_25_237
*814 FILLER_25_249
*815 FILLER_25_261
*816 FILLER_25_273
*817 FILLER_25_279
*818 FILLER_25_28
*819 FILLER_25_281
*820 FILLER_25_293
*821 FILLER_25_3
*822 FILLER_25_52
*823 FILLER_25_57
*824 FILLER_25_7
*825 FILLER_25_80
*826 FILLER_25_84
*827 FILLER_26_100
*828 FILLER_26_106
*829 FILLER_26_128
*830 FILLER_26_136
*831 FILLER_26_141
*832 FILLER_26_153
*833 FILLER_26_165
*834 FILLER_26_177
*835 FILLER_26_189
*836 FILLER_26_195
*837 FILLER_26_197
*838 FILLER_26_209
*839 FILLER_26_221
*840 FILLER_26_233
*841 FILLER_26_24
*842 FILLER_26_245
*843 FILLER_26_251
*844 FILLER_26_253
*845 FILLER_26_265
*846 FILLER_26_277
*847 FILLER_26_289
*848 FILLER_26_297
*849 FILLER_26_3
*850 FILLER_26_49
*851 FILLER_26_73
*852 FILLER_26_80
*853 FILLER_26_88
*854 FILLER_27_108
*855 FILLER_27_121
*856 FILLER_27_127
*857 FILLER_27_136
*858 FILLER_27_144
*859 FILLER_27_156
*860 FILLER_27_169
*861 FILLER_27_181
*862 FILLER_27_193
*863 FILLER_27_205
*864 FILLER_27_217
*865 FILLER_27_223
*866 FILLER_27_225
*867 FILLER_27_237
*868 FILLER_27_24
*869 FILLER_27_249
*870 FILLER_27_261
*871 FILLER_27_273
*872 FILLER_27_279
*873 FILLER_27_281
*874 FILLER_27_293
*875 FILLER_27_3
*876 FILLER_27_48
*877 FILLER_27_57
*878 FILLER_27_80
*879 FILLER_28_123
*880 FILLER_28_135
*881 FILLER_28_139
*882 FILLER_28_141
*883 FILLER_28_153
*884 FILLER_28_165
*885 FILLER_28_177
*886 FILLER_28_189
*887 FILLER_28_195
*888 FILLER_28_197
*889 FILLER_28_209
*890 FILLER_28_221
*891 FILLER_28_233
*892 FILLER_28_24
*893 FILLER_28_245
*894 FILLER_28_251
*895 FILLER_28_253
*896 FILLER_28_265
*897 FILLER_28_277
*898 FILLER_28_289
*899 FILLER_28_297
*900 FILLER_28_3
*901 FILLER_28_49
*902 FILLER_28_77
*903 FILLER_28_83
*904 FILLER_28_85
*905 FILLER_28_99
*906 FILLER_29_108
*907 FILLER_29_117
*908 FILLER_29_12
*909 FILLER_29_129
*910 FILLER_29_137
*911 FILLER_29_149
*912 FILLER_29_161
*913 FILLER_29_167
*914 FILLER_29_169
*915 FILLER_29_181
*916 FILLER_29_193
*917 FILLER_29_205
*918 FILLER_29_217
*919 FILLER_29_223
*920 FILLER_29_225
*921 FILLER_29_237
*922 FILLER_29_249
*923 FILLER_29_261
*924 FILLER_29_273
*925 FILLER_29_279
*926 FILLER_29_281
*927 FILLER_29_293
*928 FILLER_29_3
*929 FILLER_29_36
*930 FILLER_29_50
*931 FILLER_29_77
*932 FILLER_29_84
*933 FILLER_2_109
*934 FILLER_2_121
*935 FILLER_2_133
*936 FILLER_2_139
*937 FILLER_2_141
*938 FILLER_2_15
*939 FILLER_2_153
*940 FILLER_2_165
*941 FILLER_2_177
*942 FILLER_2_189
*943 FILLER_2_195
*944 FILLER_2_197
*945 FILLER_2_209
*946 FILLER_2_221
*947 FILLER_2_233
*948 FILLER_2_24
*949 FILLER_2_245
*950 FILLER_2_251
*951 FILLER_2_253
*952 FILLER_2_265
*953 FILLER_2_277
*954 FILLER_2_289
*955 FILLER_2_29
*956 FILLER_2_297
*957 FILLER_2_3
*958 FILLER_2_37
*959 FILLER_2_59
*960 FILLER_2_71
*961 FILLER_2_83
*962 FILLER_2_85
*963 FILLER_2_97
*964 FILLER_30_121
*965 FILLER_30_133
*966 FILLER_30_139
*967 FILLER_30_141
*968 FILLER_30_153
*969 FILLER_30_165
*970 FILLER_30_177
*971 FILLER_30_189
*972 FILLER_30_195
*973 FILLER_30_197
*974 FILLER_30_209
*975 FILLER_30_221
*976 FILLER_30_233
*977 FILLER_30_24
*978 FILLER_30_245
*979 FILLER_30_251
*980 FILLER_30_253
*981 FILLER_30_265
*982 FILLER_30_277
*983 FILLER_30_289
*984 FILLER_30_297
*985 FILLER_30_3
*986 FILLER_30_49
*987 FILLER_30_57
*988 FILLER_30_78
*989 FILLER_30_95
*990 FILLER_31_102
*991 FILLER_31_110
*992 FILLER_31_12
*993 FILLER_31_133
*994 FILLER_31_145
*995 FILLER_31_157
*996 FILLER_31_165
*997 FILLER_31_169
*998 FILLER_31_181
*999 FILLER_31_193
*1000 FILLER_31_205
*1001 FILLER_31_217
*1002 FILLER_31_223
*1003 FILLER_31_225
*1004 FILLER_31_237
*1005 FILLER_31_249
*1006 FILLER_31_261
*1007 FILLER_31_273
*1008 FILLER_31_279
*1009 FILLER_31_281
*1010 FILLER_31_293
*1011 FILLER_31_3
*1012 FILLER_31_37
*1013 FILLER_31_51
*1014 FILLER_31_55
*1015 FILLER_31_57
*1016 FILLER_31_78
*1017 FILLER_32_101
*1018 FILLER_32_105
*1019 FILLER_32_126
*1020 FILLER_32_138
*1021 FILLER_32_141
*1022 FILLER_32_153
*1023 FILLER_32_165
*1024 FILLER_32_177
*1025 FILLER_32_189
*1026 FILLER_32_195
*1027 FILLER_32_197
*1028 FILLER_32_209
*1029 FILLER_32_221
*1030 FILLER_32_233
*1031 FILLER_32_24
*1032 FILLER_32_245
*1033 FILLER_32_251
*1034 FILLER_32_253
*1035 FILLER_32_265
*1036 FILLER_32_277
*1037 FILLER_32_289
*1038 FILLER_32_297
*1039 FILLER_32_3
*1040 FILLER_32_32
*1041 FILLER_32_56
*1042 FILLER_32_80
*1043 FILLER_33_105
*1044 FILLER_33_11
*1045 FILLER_33_111
*1046 FILLER_33_117
*1047 FILLER_33_129
*1048 FILLER_33_141
*1049 FILLER_33_153
*1050 FILLER_33_165
*1051 FILLER_33_169
*1052 FILLER_33_181
*1053 FILLER_33_193
*1054 FILLER_33_205
*1055 FILLER_33_217
*1056 FILLER_33_223
*1057 FILLER_33_225
*1058 FILLER_33_23
*1059 FILLER_33_237
*1060 FILLER_33_249
*1061 FILLER_33_261
*1062 FILLER_33_273
*1063 FILLER_33_279
*1064 FILLER_33_281
*1065 FILLER_33_293
*1066 FILLER_33_47
*1067 FILLER_33_55
*1068 FILLER_33_57
*1069 FILLER_33_69
*1070 FILLER_33_93
*1071 FILLER_34_12
*1072 FILLER_34_121
*1073 FILLER_34_133
*1074 FILLER_34_139
*1075 FILLER_34_141
*1076 FILLER_34_153
*1077 FILLER_34_165
*1078 FILLER_34_177
*1079 FILLER_34_189
*1080 FILLER_34_195
*1081 FILLER_34_197
*1082 FILLER_34_209
*1083 FILLER_34_221
*1084 FILLER_34_233
*1085 FILLER_34_24
*1086 FILLER_34_245
*1087 FILLER_34_251
*1088 FILLER_34_253
*1089 FILLER_34_265
*1090 FILLER_34_277
*1091 FILLER_34_289
*1092 FILLER_34_297
*1093 FILLER_34_3
*1094 FILLER_34_32
*1095 FILLER_34_56
*1096 FILLER_34_80
*1097 FILLER_34_93
*1098 FILLER_35_108
*1099 FILLER_35_113
*1100 FILLER_35_124
*1101 FILLER_35_133
*1102 FILLER_35_145
*1103 FILLER_35_157
*1104 FILLER_35_165
*1105 FILLER_35_169
*1106 FILLER_35_181
*1107 FILLER_35_193
*1108 FILLER_35_205
*1109 FILLER_35_217
*1110 FILLER_35_223
*1111 FILLER_35_225
*1112 FILLER_35_237
*1113 FILLER_35_249
*1114 FILLER_35_261
*1115 FILLER_35_27
*1116 FILLER_35_273
*1117 FILLER_35_279
*1118 FILLER_35_281
*1119 FILLER_35_293
*1120 FILLER_35_3
*1121 FILLER_35_38
*1122 FILLER_35_52
*1123 FILLER_35_57
*1124 FILLER_35_68
*1125 FILLER_35_92
*1126 FILLER_36_103
*1127 FILLER_36_124
*1128 FILLER_36_132
*1129 FILLER_36_141
*1130 FILLER_36_153
*1131 FILLER_36_165
*1132 FILLER_36_177
*1133 FILLER_36_189
*1134 FILLER_36_195
*1135 FILLER_36_197
*1136 FILLER_36_209
*1137 FILLER_36_221
*1138 FILLER_36_233
*1139 FILLER_36_24
*1140 FILLER_36_245
*1141 FILLER_36_251
*1142 FILLER_36_253
*1143 FILLER_36_265
*1144 FILLER_36_277
*1145 FILLER_36_289
*1146 FILLER_36_297
*1147 FILLER_36_3
*1148 FILLER_36_36
*1149 FILLER_36_56
*1150 FILLER_36_80
*1151 FILLER_36_85
*1152 FILLER_36_97
*1153 FILLER_37_104
*1154 FILLER_37_11
*1155 FILLER_37_133
*1156 FILLER_37_145
*1157 FILLER_37_157
*1158 FILLER_37_165
*1159 FILLER_37_169
*1160 FILLER_37_181
*1161 FILLER_37_193
*1162 FILLER_37_205
*1163 FILLER_37_217
*1164 FILLER_37_223
*1165 FILLER_37_225
*1166 FILLER_37_237
*1167 FILLER_37_24
*1168 FILLER_37_249
*1169 FILLER_37_261
*1170 FILLER_37_273
*1171 FILLER_37_279
*1172 FILLER_37_28
*1173 FILLER_37_281
*1174 FILLER_37_293
*1175 FILLER_37_39
*1176 FILLER_37_49
*1177 FILLER_37_55
*1178 FILLER_37_57
*1179 FILLER_37_79
*1180 FILLER_37_83
*1181 FILLER_38_114
*1182 FILLER_38_123
*1183 FILLER_38_135
*1184 FILLER_38_139
*1185 FILLER_38_141
*1186 FILLER_38_153
*1187 FILLER_38_165
*1188 FILLER_38_177
*1189 FILLER_38_189
*1190 FILLER_38_195
*1191 FILLER_38_197
*1192 FILLER_38_209
*1193 FILLER_38_221
*1194 FILLER_38_233
*1195 FILLER_38_24
*1196 FILLER_38_245
*1197 FILLER_38_251
*1198 FILLER_38_253
*1199 FILLER_38_265
*1200 FILLER_38_277
*1201 FILLER_38_289
*1202 FILLER_38_297
*1203 FILLER_38_3
*1204 FILLER_38_39
*1205 FILLER_38_61
*1206 FILLER_38_68
*1207 FILLER_38_80
*1208 FILLER_38_90
*1209 FILLER_39_105
*1210 FILLER_39_111
*1211 FILLER_39_121
*1212 FILLER_39_129
*1213 FILLER_39_141
*1214 FILLER_39_153
*1215 FILLER_39_165
*1216 FILLER_39_169
*1217 FILLER_39_18
*1218 FILLER_39_181
*1219 FILLER_39_193
*1220 FILLER_39_205
*1221 FILLER_39_217
*1222 FILLER_39_223
*1223 FILLER_39_225
*1224 FILLER_39_237
*1225 FILLER_39_249
*1226 FILLER_39_261
*1227 FILLER_39_273
*1228 FILLER_39_279
*1229 FILLER_39_281
*1230 FILLER_39_293
*1231 FILLER_39_3
*1232 FILLER_39_32
*1233 FILLER_39_52
*1234 FILLER_39_57
*1235 FILLER_39_7
*1236 FILLER_39_81
*1237 FILLER_3_101
*1238 FILLER_3_109
*1239 FILLER_3_113
*1240 FILLER_3_125
*1241 FILLER_3_137
*1242 FILLER_3_149
*1243 FILLER_3_161
*1244 FILLER_3_167
*1245 FILLER_3_169
*1246 FILLER_3_181
*1247 FILLER_3_193
*1248 FILLER_3_205
*1249 FILLER_3_217
*1250 FILLER_3_223
*1251 FILLER_3_225
*1252 FILLER_3_237
*1253 FILLER_3_249
*1254 FILLER_3_261
*1255 FILLER_3_273
*1256 FILLER_3_279
*1257 FILLER_3_28
*1258 FILLER_3_281
*1259 FILLER_3_293
*1260 FILLER_3_3
*1261 FILLER_3_52
*1262 FILLER_3_65
*1263 FILLER_3_7
*1264 FILLER_3_77
*1265 FILLER_3_89
*1266 FILLER_40_121
*1267 FILLER_40_133
*1268 FILLER_40_139
*1269 FILLER_40_141
*1270 FILLER_40_153
*1271 FILLER_40_165
*1272 FILLER_40_177
*1273 FILLER_40_189
*1274 FILLER_40_19
*1275 FILLER_40_195
*1276 FILLER_40_197
*1277 FILLER_40_209
*1278 FILLER_40_221
*1279 FILLER_40_233
*1280 FILLER_40_245
*1281 FILLER_40_251
*1282 FILLER_40_253
*1283 FILLER_40_265
*1284 FILLER_40_27
*1285 FILLER_40_277
*1286 FILLER_40_289
*1287 FILLER_40_297
*1288 FILLER_40_32
*1289 FILLER_40_42
*1290 FILLER_40_66
*1291 FILLER_40_7
*1292 FILLER_40_78
*1293 FILLER_40_85
*1294 FILLER_40_97
*1295 FILLER_41_108
*1296 FILLER_41_11
*1297 FILLER_41_133
*1298 FILLER_41_145
*1299 FILLER_41_15
*1300 FILLER_41_157
*1301 FILLER_41_165
*1302 FILLER_41_169
*1303 FILLER_41_181
*1304 FILLER_41_193
*1305 FILLER_41_205
*1306 FILLER_41_217
*1307 FILLER_41_223
*1308 FILLER_41_225
*1309 FILLER_41_237
*1310 FILLER_41_249
*1311 FILLER_41_261
*1312 FILLER_41_273
*1313 FILLER_41_279
*1314 FILLER_41_281
*1315 FILLER_41_293
*1316 FILLER_41_36
*1317 FILLER_41_46
*1318 FILLER_41_54
*1319 FILLER_41_77
*1320 FILLER_41_84
*1321 FILLER_42_101
*1322 FILLER_42_122
*1323 FILLER_42_134
*1324 FILLER_42_141
*1325 FILLER_42_153
*1326 FILLER_42_165
*1327 FILLER_42_177
*1328 FILLER_42_189
*1329 FILLER_42_195
*1330 FILLER_42_197
*1331 FILLER_42_209
*1332 FILLER_42_221
*1333 FILLER_42_233
*1334 FILLER_42_24
*1335 FILLER_42_245
*1336 FILLER_42_251
*1337 FILLER_42_253
*1338 FILLER_42_265
*1339 FILLER_42_277
*1340 FILLER_42_289
*1341 FILLER_42_297
*1342 FILLER_42_3
*1343 FILLER_42_35
*1344 FILLER_42_43
*1345 FILLER_42_52
*1346 FILLER_42_76
*1347 FILLER_42_93
*1348 FILLER_43_103
*1349 FILLER_43_108
*1350 FILLER_43_11
*1351 FILLER_43_133
*1352 FILLER_43_145
*1353 FILLER_43_157
*1354 FILLER_43_165
*1355 FILLER_43_169
*1356 FILLER_43_18
*1357 FILLER_43_181
*1358 FILLER_43_193
*1359 FILLER_43_205
*1360 FILLER_43_217
*1361 FILLER_43_223
*1362 FILLER_43_225
*1363 FILLER_43_237
*1364 FILLER_43_249
*1365 FILLER_43_261
*1366 FILLER_43_273
*1367 FILLER_43_279
*1368 FILLER_43_281
*1369 FILLER_43_293
*1370 FILLER_43_42
*1371 FILLER_43_52
*1372 FILLER_43_63
*1373 FILLER_43_7
*1374 FILLER_43_75
*1375 FILLER_43_99
*1376 FILLER_44_101
*1377 FILLER_44_12
*1378 FILLER_44_122
*1379 FILLER_44_134
*1380 FILLER_44_141
*1381 FILLER_44_153
*1382 FILLER_44_165
*1383 FILLER_44_177
*1384 FILLER_44_189
*1385 FILLER_44_195
*1386 FILLER_44_197
*1387 FILLER_44_209
*1388 FILLER_44_221
*1389 FILLER_44_233
*1390 FILLER_44_24
*1391 FILLER_44_245
*1392 FILLER_44_251
*1393 FILLER_44_253
*1394 FILLER_44_265
*1395 FILLER_44_277
*1396 FILLER_44_289
*1397 FILLER_44_297
*1398 FILLER_44_3
*1399 FILLER_44_32
*1400 FILLER_44_56
*1401 FILLER_44_80
*1402 FILLER_44_95
*1403 FILLER_45_108
*1404 FILLER_45_113
*1405 FILLER_45_124
*1406 FILLER_45_136
*1407 FILLER_45_148
*1408 FILLER_45_160
*1409 FILLER_45_169
*1410 FILLER_45_181
*1411 FILLER_45_193
*1412 FILLER_45_205
*1413 FILLER_45_217
*1414 FILLER_45_223
*1415 FILLER_45_225
*1416 FILLER_45_237
*1417 FILLER_45_249
*1418 FILLER_45_261
*1419 FILLER_45_273
*1420 FILLER_45_279
*1421 FILLER_45_28
*1422 FILLER_45_281
*1423 FILLER_45_293
*1424 FILLER_45_3
*1425 FILLER_45_52
*1426 FILLER_45_60
*1427 FILLER_45_7
*1428 FILLER_45_84
*1429 FILLER_46_117
*1430 FILLER_46_129
*1431 FILLER_46_137
*1432 FILLER_46_141
*1433 FILLER_46_153
*1434 FILLER_46_165
*1435 FILLER_46_177
*1436 FILLER_46_189
*1437 FILLER_46_195
*1438 FILLER_46_197
*1439 FILLER_46_209
*1440 FILLER_46_221
*1441 FILLER_46_233
*1442 FILLER_46_24
*1443 FILLER_46_245
*1444 FILLER_46_251
*1445 FILLER_46_253
*1446 FILLER_46_265
*1447 FILLER_46_277
*1448 FILLER_46_289
*1449 FILLER_46_297
*1450 FILLER_46_3
*1451 FILLER_46_34
*1452 FILLER_46_46
*1453 FILLER_46_70
*1454 FILLER_46_80
*1455 FILLER_46_93
*1456 FILLER_47_103
*1457 FILLER_47_111
*1458 FILLER_47_121
*1459 FILLER_47_133
*1460 FILLER_47_145
*1461 FILLER_47_157
*1462 FILLER_47_165
*1463 FILLER_47_169
*1464 FILLER_47_181
*1465 FILLER_47_193
*1466 FILLER_47_205
*1467 FILLER_47_217
*1468 FILLER_47_223
*1469 FILLER_47_225
*1470 FILLER_47_237
*1471 FILLER_47_249
*1472 FILLER_47_261
*1473 FILLER_47_273
*1474 FILLER_47_279
*1475 FILLER_47_281
*1476 FILLER_47_293
*1477 FILLER_47_33
*1478 FILLER_47_45
*1479 FILLER_47_52
*1480 FILLER_47_65
*1481 FILLER_47_81
*1482 FILLER_47_9
*1483 FILLER_47_93
*1484 FILLER_48_109
*1485 FILLER_48_121
*1486 FILLER_48_133
*1487 FILLER_48_139
*1488 FILLER_48_141
*1489 FILLER_48_153
*1490 FILLER_48_165
*1491 FILLER_48_177
*1492 FILLER_48_18
*1493 FILLER_48_189
*1494 FILLER_48_195
*1495 FILLER_48_197
*1496 FILLER_48_209
*1497 FILLER_48_221
*1498 FILLER_48_233
*1499 FILLER_48_245
*1500 FILLER_48_251
*1501 FILLER_48_253
*1502 FILLER_48_26
*1503 FILLER_48_265
*1504 FILLER_48_277
*1505 FILLER_48_289
*1506 FILLER_48_297
*1507 FILLER_48_3
*1508 FILLER_48_36
*1509 FILLER_48_43
*1510 FILLER_48_51
*1511 FILLER_48_56
*1512 FILLER_48_72
*1513 FILLER_48_85
*1514 FILLER_48_97
*1515 FILLER_49_105
*1516 FILLER_49_111
*1517 FILLER_49_113
*1518 FILLER_49_125
*1519 FILLER_49_137
*1520 FILLER_49_149
*1521 FILLER_49_161
*1522 FILLER_49_167
*1523 FILLER_49_169
*1524 FILLER_49_181
*1525 FILLER_49_193
*1526 FILLER_49_20
*1527 FILLER_49_205
*1528 FILLER_49_217
*1529 FILLER_49_223
*1530 FILLER_49_225
*1531 FILLER_49_237
*1532 FILLER_49_249
*1533 FILLER_49_261
*1534 FILLER_49_273
*1535 FILLER_49_279
*1536 FILLER_49_281
*1537 FILLER_49_293