*SPEF "ieee 1481-1999"
*DESIGN "vaishnavachath_rotary_toplevel"
*DATE "11:11:11 Fri 11 11, 1111"
*VENDOR "OpenRCX"
*PROGRAM "Parallel Extraction"
*VERSION "1.0"
*DESIGN_FLOW "NAME_SCOPE LOCAL" "PIN_CAP NONE"
*DIVIDER /
*DELIMITER :
*BUS_DELIMITER []
*T_UNIT 1 NS
*C_UNIT 1 PF
*R_UNIT 1 OHM
*L_UNIT 1 HENRY

*NAME_MAP
*1 io_in[0]
*2 io_in[1]
*3 io_in[2]
*4 io_in[3]
*5 io_in[4]
*6 io_in[5]
*7 io_in[6]
*8 io_in[7]
*9 io_out[0]
*10 io_out[1]
*11 io_out[2]
*12 io_out[3]
*13 io_out[4]
*14 io_out[5]
*15 io_out[6]
*16 net5
*19 _000_
*20 _001_
*21 _002_
*22 _003_
*23 _004_
*24 _005_
*25 _006_
*26 _007_
*27 _008_
*28 _009_
*29 _010_
*30 _011_
*31 _012_
*32 _013_
*33 _014_
*34 _015_
*35 _016_
*36 _017_
*37 _018_
*38 _019_
*39 _020_
*40 _021_
*41 _022_
*42 _023_
*43 _024_
*44 _025_
*45 _026_
*46 _027_
*47 _028_
*48 _029_
*49 _030_
*50 _031_
*51 _032_
*52 _033_
*53 _034_
*54 _035_
*55 _036_
*56 _037_
*57 _038_
*58 _039_
*59 _040_
*60 _041_
*61 _042_
*62 _043_
*63 _044_
*64 _045_
*65 _046_
*66 _047_
*67 _048_
*68 _049_
*69 _050_
*70 _051_
*71 _052_
*72 _053_
*73 _054_
*74 _055_
*75 _056_
*76 _057_
*77 _058_
*78 _059_
*79 clk_msb_delayed
*80 clknet_0_io_in[0]
*81 clknet_1_0__leaf_io_in[0]
*82 clknet_1_1__leaf_io_in[0]
*83 counter\[0\]
*84 counter\[1\]
*85 counter\[2\]
*86 counter\[3\]
*87 enc_byte\[0\]
*88 enc_byte\[1\]
*89 enc_byte\[2\]
*90 enc_byte\[3\]
*91 net1
*92 net2
*93 net3
*94 net4
*95 rt_a
*96 rt_a_delayed
*97 rt_b
*98 rt_b_delayed
*99 FILLER_0_109
*100 FILLER_0_113
*101 FILLER_0_125
*102 FILLER_0_137
*103 FILLER_0_141
*104 FILLER_0_15
*105 FILLER_0_153
*106 FILLER_0_165
*107 FILLER_0_169
*108 FILLER_0_181
*109 FILLER_0_193
*110 FILLER_0_197
*111 FILLER_0_209
*112 FILLER_0_221
*113 FILLER_0_225
*114 FILLER_0_237
*115 FILLER_0_249
*116 FILLER_0_253
*117 FILLER_0_265
*118 FILLER_0_27
*119 FILLER_0_277
*120 FILLER_0_281
*121 FILLER_0_29
*122 FILLER_0_293
*123 FILLER_0_3
*124 FILLER_0_41
*125 FILLER_0_53
*126 FILLER_0_57
*127 FILLER_0_69
*128 FILLER_0_81
*129 FILLER_0_85
*130 FILLER_0_97
*131 FILLER_10_109
*132 FILLER_10_121
*133 FILLER_10_133
*134 FILLER_10_139
*135 FILLER_10_141
*136 FILLER_10_153
*137 FILLER_10_165
*138 FILLER_10_177
*139 FILLER_10_189
*140 FILLER_10_19
*141 FILLER_10_195
*142 FILLER_10_197
*143 FILLER_10_209
*144 FILLER_10_221
*145 FILLER_10_233
*146 FILLER_10_245
*147 FILLER_10_251
*148 FILLER_10_253
*149 FILLER_10_265
*150 FILLER_10_27
*151 FILLER_10_277
*152 FILLER_10_289
*153 FILLER_10_29
*154 FILLER_10_297
*155 FILLER_10_41
*156 FILLER_10_53
*157 FILLER_10_65
*158 FILLER_10_77
*159 FILLER_10_83
*160 FILLER_10_85
*161 FILLER_10_97
*162 FILLER_11_105
*163 FILLER_11_111
*164 FILLER_11_113
*165 FILLER_11_125
*166 FILLER_11_137
*167 FILLER_11_149
*168 FILLER_11_161
*169 FILLER_11_167
*170 FILLER_11_169
*171 FILLER_11_181
*172 FILLER_11_193
*173 FILLER_11_20
*174 FILLER_11_205
*175 FILLER_11_217
*176 FILLER_11_223
*177 FILLER_11_225
*178 FILLER_11_237
*179 FILLER_11_249
*180 FILLER_11_261
*181 FILLER_11_273
*182 FILLER_11_279
*183 FILLER_11_281
*184 FILLER_11_293
*185 FILLER_11_35
*186 FILLER_11_47
*187 FILLER_11_55
*188 FILLER_11_57
*189 FILLER_11_69
*190 FILLER_11_81
*191 FILLER_11_93
*192 FILLER_12_109
*193 FILLER_12_121
*194 FILLER_12_133
*195 FILLER_12_139
*196 FILLER_12_141
*197 FILLER_12_153
*198 FILLER_12_165
*199 FILLER_12_177
*200 FILLER_12_189
*201 FILLER_12_195
*202 FILLER_12_197
*203 FILLER_12_209
*204 FILLER_12_221
*205 FILLER_12_233
*206 FILLER_12_24
*207 FILLER_12_245
*208 FILLER_12_251
*209 FILLER_12_253
*210 FILLER_12_265
*211 FILLER_12_277
*212 FILLER_12_289
*213 FILLER_12_297
*214 FILLER_12_3
*215 FILLER_12_32
*216 FILLER_12_44
*217 FILLER_12_56
*218 FILLER_12_68
*219 FILLER_12_80
*220 FILLER_12_85
*221 FILLER_12_97
*222 FILLER_13_105
*223 FILLER_13_111
*224 FILLER_13_113
*225 FILLER_13_125
*226 FILLER_13_137
*227 FILLER_13_149
*228 FILLER_13_161
*229 FILLER_13_167
*230 FILLER_13_169
*231 FILLER_13_181
*232 FILLER_13_19
*233 FILLER_13_193
*234 FILLER_13_205
*235 FILLER_13_217
*236 FILLER_13_223
*237 FILLER_13_225
*238 FILLER_13_237
*239 FILLER_13_249
*240 FILLER_13_261
*241 FILLER_13_273
*242 FILLER_13_279
*243 FILLER_13_281
*244 FILLER_13_293
*245 FILLER_13_31
*246 FILLER_13_43
*247 FILLER_13_55
*248 FILLER_13_57
*249 FILLER_13_69
*250 FILLER_13_81
*251 FILLER_13_93
*252 FILLER_14_109
*253 FILLER_14_121
*254 FILLER_14_133
*255 FILLER_14_139
*256 FILLER_14_141
*257 FILLER_14_153
*258 FILLER_14_165
*259 FILLER_14_177
*260 FILLER_14_189
*261 FILLER_14_19
*262 FILLER_14_195
*263 FILLER_14_197
*264 FILLER_14_209
*265 FILLER_14_221
*266 FILLER_14_233
*267 FILLER_14_245
*268 FILLER_14_251
*269 FILLER_14_253
*270 FILLER_14_265
*271 FILLER_14_27
*272 FILLER_14_277
*273 FILLER_14_289
*274 FILLER_14_29
*275 FILLER_14_297
*276 FILLER_14_41
*277 FILLER_14_53
*278 FILLER_14_65
*279 FILLER_14_77
*280 FILLER_14_83
*281 FILLER_14_85
*282 FILLER_14_97
*283 FILLER_15_108
*284 FILLER_15_113
*285 FILLER_15_125
*286 FILLER_15_137
*287 FILLER_15_149
*288 FILLER_15_161
*289 FILLER_15_167
*290 FILLER_15_169
*291 FILLER_15_181
*292 FILLER_15_19
*293 FILLER_15_193
*294 FILLER_15_205
*295 FILLER_15_217
*296 FILLER_15_223
*297 FILLER_15_225
*298 FILLER_15_237
*299 FILLER_15_249
*300 FILLER_15_261
*301 FILLER_15_273
*302 FILLER_15_279
*303 FILLER_15_281
*304 FILLER_15_293
*305 FILLER_15_31
*306 FILLER_15_43
*307 FILLER_15_52
*308 FILLER_15_57
*309 FILLER_15_65
*310 FILLER_15_72
*311 FILLER_15_84
*312 FILLER_15_96
*313 FILLER_16_109
*314 FILLER_16_121
*315 FILLER_16_133
*316 FILLER_16_139
*317 FILLER_16_141
*318 FILLER_16_153
*319 FILLER_16_165
*320 FILLER_16_177
*321 FILLER_16_189
*322 FILLER_16_19
*323 FILLER_16_195
*324 FILLER_16_197
*325 FILLER_16_209
*326 FILLER_16_221
*327 FILLER_16_233
*328 FILLER_16_245
*329 FILLER_16_251
*330 FILLER_16_253
*331 FILLER_16_265
*332 FILLER_16_27
*333 FILLER_16_277
*334 FILLER_16_289
*335 FILLER_16_297
*336 FILLER_16_37
*337 FILLER_16_45
*338 FILLER_16_52
*339 FILLER_16_64
*340 FILLER_16_76
*341 FILLER_16_85
*342 FILLER_16_97
*343 FILLER_17_103
*344 FILLER_17_111
*345 FILLER_17_113
*346 FILLER_17_125
*347 FILLER_17_137
*348 FILLER_17_14
*349 FILLER_17_149
*350 FILLER_17_161
*351 FILLER_17_167
*352 FILLER_17_169
*353 FILLER_17_181
*354 FILLER_17_193
*355 FILLER_17_20
*356 FILLER_17_205
*357 FILLER_17_217
*358 FILLER_17_223
*359 FILLER_17_225
*360 FILLER_17_237
*361 FILLER_17_249
*362 FILLER_17_261
*363 FILLER_17_273
*364 FILLER_17_279
*365 FILLER_17_281
*366 FILLER_17_293
*367 FILLER_17_32
*368 FILLER_17_44
*369 FILLER_17_57
*370 FILLER_17_6
*371 FILLER_17_67
*372 FILLER_17_79
*373 FILLER_17_91
*374 FILLER_18_109
*375 FILLER_18_121
*376 FILLER_18_133
*377 FILLER_18_139
*378 FILLER_18_141
*379 FILLER_18_15
*380 FILLER_18_153
*381 FILLER_18_165
*382 FILLER_18_177
*383 FILLER_18_189
*384 FILLER_18_195
*385 FILLER_18_197
*386 FILLER_18_209
*387 FILLER_18_221
*388 FILLER_18_233
*389 FILLER_18_24
*390 FILLER_18_245
*391 FILLER_18_251
*392 FILLER_18_253
*393 FILLER_18_265
*394 FILLER_18_277
*395 FILLER_18_289
*396 FILLER_18_29
*397 FILLER_18_297
*398 FILLER_18_3
*399 FILLER_18_40
*400 FILLER_18_52
*401 FILLER_18_64
*402 FILLER_18_76
*403 FILLER_18_85
*404 FILLER_18_97
*405 FILLER_19_100
*406 FILLER_19_113
*407 FILLER_19_125
*408 FILLER_19_13
*409 FILLER_19_137
*410 FILLER_19_149
*411 FILLER_19_161
*412 FILLER_19_167
*413 FILLER_19_169
*414 FILLER_19_181
*415 FILLER_19_193
*416 FILLER_19_20
*417 FILLER_19_205
*418 FILLER_19_217
*419 FILLER_19_223
*420 FILLER_19_225
*421 FILLER_19_237
*422 FILLER_19_249
*423 FILLER_19_261
*424 FILLER_19_273
*425 FILLER_19_279
*426 FILLER_19_28
*427 FILLER_19_281
*428 FILLER_19_293
*429 FILLER_19_3
*430 FILLER_19_35
*431 FILLER_19_47
*432 FILLER_19_55
*433 FILLER_19_57
*434 FILLER_19_65
*435 FILLER_19_88
*436 FILLER_1_110
*437 FILLER_1_113
*438 FILLER_1_125
*439 FILLER_1_137
*440 FILLER_1_149
*441 FILLER_1_161
*442 FILLER_1_167
*443 FILLER_1_169
*444 FILLER_1_181
*445 FILLER_1_19
*446 FILLER_1_193
*447 FILLER_1_205
*448 FILLER_1_217
*449 FILLER_1_223
*450 FILLER_1_225
*451 FILLER_1_237
*452 FILLER_1_249
*453 FILLER_1_261
*454 FILLER_1_273
*455 FILLER_1_279
*456 FILLER_1_281
*457 FILLER_1_293
*458 FILLER_1_31
*459 FILLER_1_43
*460 FILLER_1_55
*461 FILLER_1_57
*462 FILLER_1_74
*463 FILLER_1_86
*464 FILLER_1_98
*465 FILLER_20_109
*466 FILLER_20_121
*467 FILLER_20_133
*468 FILLER_20_139
*469 FILLER_20_141
*470 FILLER_20_153
*471 FILLER_20_165
*472 FILLER_20_177
*473 FILLER_20_189
*474 FILLER_20_19
*475 FILLER_20_195
*476 FILLER_20_197
*477 FILLER_20_209
*478 FILLER_20_221
*479 FILLER_20_233
*480 FILLER_20_245
*481 FILLER_20_251
*482 FILLER_20_253
*483 FILLER_20_265
*484 FILLER_20_27
*485 FILLER_20_277
*486 FILLER_20_289
*487 FILLER_20_29
*488 FILLER_20_297
*489 FILLER_20_3
*490 FILLER_20_41
*491 FILLER_20_53
*492 FILLER_20_65
*493 FILLER_20_7
*494 FILLER_20_77
*495 FILLER_20_83
*496 FILLER_20_85
*497 FILLER_20_97
*498 FILLER_21_101
*499 FILLER_21_109
*500 FILLER_21_113
*501 FILLER_21_125
*502 FILLER_21_137
*503 FILLER_21_149
*504 FILLER_21_161
*505 FILLER_21_167
*506 FILLER_21_169
*507 FILLER_21_17
*508 FILLER_21_181
*509 FILLER_21_193
*510 FILLER_21_205
*511 FILLER_21_217
*512 FILLER_21_223
*513 FILLER_21_225
*514 FILLER_21_23
*515 FILLER_21_237
*516 FILLER_21_249
*517 FILLER_21_261
*518 FILLER_21_273
*519 FILLER_21_279
*520 FILLER_21_281
*521 FILLER_21_293
*522 FILLER_21_3
*523 FILLER_21_35
*524 FILLER_21_47
*525 FILLER_21_55
*526 FILLER_21_57
*527 FILLER_21_69
*528 FILLER_21_77
*529 FILLER_21_89
*530 FILLER_21_9
*531 FILLER_22_109
*532 FILLER_22_121
*533 FILLER_22_133
*534 FILLER_22_139
*535 FILLER_22_141
*536 FILLER_22_15
*537 FILLER_22_153
*538 FILLER_22_165
*539 FILLER_22_177
*540 FILLER_22_189
*541 FILLER_22_195
*542 FILLER_22_197
*543 FILLER_22_209
*544 FILLER_22_221
*545 FILLER_22_233
*546 FILLER_22_245
*547 FILLER_22_251
*548 FILLER_22_253
*549 FILLER_22_265
*550 FILLER_22_27
*551 FILLER_22_277
*552 FILLER_22_289
*553 FILLER_22_29
*554 FILLER_22_297
*555 FILLER_22_3
*556 FILLER_22_41
*557 FILLER_22_53
*558 FILLER_22_65
*559 FILLER_22_77
*560 FILLER_22_83
*561 FILLER_22_85
*562 FILLER_22_97
*563 FILLER_23_10
*564 FILLER_23_105
*565 FILLER_23_111
*566 FILLER_23_113
*567 FILLER_23_125
*568 FILLER_23_137
*569 FILLER_23_149
*570 FILLER_23_161
*571 FILLER_23_167
*572 FILLER_23_169
*573 FILLER_23_181
*574 FILLER_23_193
*575 FILLER_23_205
*576 FILLER_23_217
*577 FILLER_23_22
*578 FILLER_23_223
*579 FILLER_23_225
*580 FILLER_23_237
*581 FILLER_23_249
*582 FILLER_23_261
*583 FILLER_23_273
*584 FILLER_23_279
*585 FILLER_23_281
*586 FILLER_23_293
*587 FILLER_23_34
*588 FILLER_23_46
*589 FILLER_23_54
*590 FILLER_23_57
*591 FILLER_23_69
*592 FILLER_23_81
*593 FILLER_23_93
*594 FILLER_24_109
*595 FILLER_24_121
*596 FILLER_24_133
*597 FILLER_24_139
*598 FILLER_24_141
*599 FILLER_24_15
*600 FILLER_24_153
*601 FILLER_24_165
*602 FILLER_24_177
*603 FILLER_24_189
*604 FILLER_24_195
*605 FILLER_24_197
*606 FILLER_24_209
*607 FILLER_24_21
*608 FILLER_24_221
*609 FILLER_24_233
*610 FILLER_24_245
*611 FILLER_24_251
*612 FILLER_24_253
*613 FILLER_24_265
*614 FILLER_24_27
*615 FILLER_24_277
*616 FILLER_24_289
*617 FILLER_24_29
*618 FILLER_24_297
*619 FILLER_24_3
*620 FILLER_24_41
*621 FILLER_24_53
*622 FILLER_24_65
*623 FILLER_24_77
*624 FILLER_24_83
*625 FILLER_24_85
*626 FILLER_24_97
*627 FILLER_25_102
*628 FILLER_25_110
*629 FILLER_25_113
*630 FILLER_25_125
*631 FILLER_25_137
*632 FILLER_25_14
*633 FILLER_25_149
*634 FILLER_25_161
*635 FILLER_25_167
*636 FILLER_25_169
*637 FILLER_25_181
*638 FILLER_25_193
*639 FILLER_25_205
*640 FILLER_25_217
*641 FILLER_25_223
*642 FILLER_25_225
*643 FILLER_25_237
*644 FILLER_25_24
*645 FILLER_25_249
*646 FILLER_25_261
*647 FILLER_25_273
*648 FILLER_25_279
*649 FILLER_25_281
*650 FILLER_25_293
*651 FILLER_25_3
*652 FILLER_25_32
*653 FILLER_25_40
*654 FILLER_25_52
*655 FILLER_25_66
*656 FILLER_25_78
*657 FILLER_25_90
*658 FILLER_26_109
*659 FILLER_26_11
*660 FILLER_26_121
*661 FILLER_26_133
*662 FILLER_26_139
*663 FILLER_26_141
*664 FILLER_26_153
*665 FILLER_26_165
*666 FILLER_26_177
*667 FILLER_26_189
*668 FILLER_26_195
*669 FILLER_26_197
*670 FILLER_26_209
*671 FILLER_26_22
*672 FILLER_26_221
*673 FILLER_26_233
*674 FILLER_26_245
*675 FILLER_26_251
*676 FILLER_26_253
*677 FILLER_26_265
*678 FILLER_26_277
*679 FILLER_26_289
*680 FILLER_26_29
*681 FILLER_26_297
*682 FILLER_26_3
*683 FILLER_26_37
*684 FILLER_26_49
*685 FILLER_26_61
*686 FILLER_26_73
*687 FILLER_26_81
*688 FILLER_26_85
*689 FILLER_26_97
*690 FILLER_27_103
*691 FILLER_27_111
*692 FILLER_27_113
*693 FILLER_27_12
*694 FILLER_27_125
*695 FILLER_27_137
*696 FILLER_27_149
*697 FILLER_27_161
*698 FILLER_27_167
*699 FILLER_27_169
*700 FILLER_27_181
*701 FILLER_27_19
*702 FILLER_27_193
*703 FILLER_27_205
*704 FILLER_27_217
*705 FILLER_27_223
*706 FILLER_27_225
*707 FILLER_27_237
*708 FILLER_27_249
*709 FILLER_27_261
*710 FILLER_27_273
*711 FILLER_27_279
*712 FILLER_27_281
*713 FILLER_27_293
*714 FILLER_27_3
*715 FILLER_27_31
*716 FILLER_27_43
*717 FILLER_27_55
*718 FILLER_27_57
*719 FILLER_27_67
*720 FILLER_27_79
*721 FILLER_27_91
*722 FILLER_28_109
*723 FILLER_28_121
*724 FILLER_28_133
*725 FILLER_28_139
*726 FILLER_28_141
*727 FILLER_28_153
*728 FILLER_28_16
*729 FILLER_28_165
*730 FILLER_28_177
*731 FILLER_28_189
*732 FILLER_28_195
*733 FILLER_28_197
*734 FILLER_28_209
*735 FILLER_28_221
*736 FILLER_28_233
*737 FILLER_28_245
*738 FILLER_28_251
*739 FILLER_28_253
*740 FILLER_28_265
*741 FILLER_28_277
*742 FILLER_28_289
*743 FILLER_28_297
*744 FILLER_28_3
*745 FILLER_28_37
*746 FILLER_28_49
*747 FILLER_28_61
*748 FILLER_28_73
*749 FILLER_28_8
*750 FILLER_28_81
*751 FILLER_28_85
*752 FILLER_28_97
*753 FILLER_29_105
*754 FILLER_29_111
*755 FILLER_29_113
*756 FILLER_29_125
*757 FILLER_29_137
*758 FILLER_29_149
*759 FILLER_29_15
*760 FILLER_29_161
*761 FILLER_29_167
*762 FILLER_29_169
*763 FILLER_29_181
*764 FILLER_29_193
*765 FILLER_29_205
*766 FILLER_29_217
*767 FILLER_29_223
*768 FILLER_29_225
*769 FILLER_29_237
*770 FILLER_29_249
*771 FILLER_29_261
*772 FILLER_29_27
*773 FILLER_29_273
*774 FILLER_29_279
*775 FILLER_29_281
*776 FILLER_29_293
*777 FILLER_29_3
*778 FILLER_29_38
*779 FILLER_29_50
*780 FILLER_29_57
*781 FILLER_29_69
*782 FILLER_29_81
*783 FILLER_29_93
*784 FILLER_2_109
*785 FILLER_2_121
*786 FILLER_2_133
*787 FILLER_2_139
*788 FILLER_2_141
*789 FILLER_2_153
*790 FILLER_2_165
*791 FILLER_2_177
*792 FILLER_2_189
*793 FILLER_2_19
*794 FILLER_2_195
*795 FILLER_2_197
*796 FILLER_2_209
*797 FILLER_2_221
*798 FILLER_2_233
*799 FILLER_2_245
*800 FILLER_2_251
*801 FILLER_2_253
*802 FILLER_2_265
*803 FILLER_2_27
*804 FILLER_2_277
*805 FILLER_2_289
*806 FILLER_2_29
*807 FILLER_2_297
*808 FILLER_2_41
*809 FILLER_2_53
*810 FILLER_2_65
*811 FILLER_2_77
*812 FILLER_2_83
*813 FILLER_2_85
*814 FILLER_2_97
*815 FILLER_30_109
*816 FILLER_30_12
*817 FILLER_30_121
*818 FILLER_30_133
*819 FILLER_30_139
*820 FILLER_30_141
*821 FILLER_30_153
*822 FILLER_30_165
*823 FILLER_30_177
*824 FILLER_30_189
*825 FILLER_30_195
*826 FILLER_30_197
*827 FILLER_30_209
*828 FILLER_30_221
*829 FILLER_30_233
*830 FILLER_30_24
*831 FILLER_30_245
*832 FILLER_30_251
*833 FILLER_30_253
*834 FILLER_30_265
*835 FILLER_30_277
*836 FILLER_30_289
*837 FILLER_30_297
*838 FILLER_30_3
*839 FILLER_30_33
*840 FILLER_30_45
*841 FILLER_30_57
*842 FILLER_30_69
*843 FILLER_30_81
*844 FILLER_30_85
*845 FILLER_30_97
*846 FILLER_31_105
*847 FILLER_31_111
*848 FILLER_31_113
*849 FILLER_31_125
*850 FILLER_31_137
*851 FILLER_31_149
*852 FILLER_31_15
*853 FILLER_31_161
*854 FILLER_31_167
*855 FILLER_31_169
*856 FILLER_31_181
*857 FILLER_31_193
*858 FILLER_31_205
*859 FILLER_31_217
*860 FILLER_31_223
*861 FILLER_31_225
*862 FILLER_31_237
*863 FILLER_31_249
*864 FILLER_31_261
*865 FILLER_31_27
*866 FILLER_31_273
*867 FILLER_31_279
*868 FILLER_31_281
*869 FILLER_31_293
*870 FILLER_31_3
*871 FILLER_31_39
*872 FILLER_31_51
*873 FILLER_31_55
*874 FILLER_31_57
*875 FILLER_31_69
*876 FILLER_31_81
*877 FILLER_31_93
*878 FILLER_32_109
*879 FILLER_32_121
*880 FILLER_32_13
*881 FILLER_32_133
*882 FILLER_32_139
*883 FILLER_32_141
*884 FILLER_32_153
*885 FILLER_32_165
*886 FILLER_32_177
*887 FILLER_32_189
*888 FILLER_32_195
*889 FILLER_32_197
*890 FILLER_32_209
*891 FILLER_32_221
*892 FILLER_32_233
*893 FILLER_32_24
*894 FILLER_32_245
*895 FILLER_32_251
*896 FILLER_32_253
*897 FILLER_32_265
*898 FILLER_32_277
*899 FILLER_32_289
*900 FILLER_32_29
*901 FILLER_32_297
*902 FILLER_32_3
*903 FILLER_32_39
*904 FILLER_32_51
*905 FILLER_32_57
*906 FILLER_32_61
*907 FILLER_32_73
*908 FILLER_32_81
*909 FILLER_32_85
*910 FILLER_32_97
*911 FILLER_33_107
*912 FILLER_33_111
*913 FILLER_33_113
*914 FILLER_33_125
*915 FILLER_33_13
*916 FILLER_33_137
*917 FILLER_33_149
*918 FILLER_33_161
*919 FILLER_33_167
*920 FILLER_33_169
*921 FILLER_33_181
*922 FILLER_33_193
*923 FILLER_33_205
*924 FILLER_33_21
*925 FILLER_33_217
*926 FILLER_33_223
*927 FILLER_33_225
*928 FILLER_33_237
*929 FILLER_33_249
*930 FILLER_33_261
*931 FILLER_33_273
*932 FILLER_33_279
*933 FILLER_33_281
*934 FILLER_33_293
*935 FILLER_33_3
*936 FILLER_33_39
*937 FILLER_33_51
*938 FILLER_33_55
*939 FILLER_33_71
*940 FILLER_33_83
*941 FILLER_33_95
*942 FILLER_34_109
*943 FILLER_34_121
*944 FILLER_34_133
*945 FILLER_34_139
*946 FILLER_34_141
*947 FILLER_34_153
*948 FILLER_34_165
*949 FILLER_34_177
*950 FILLER_34_189
*951 FILLER_34_19
*952 FILLER_34_195
*953 FILLER_34_197
*954 FILLER_34_209
*955 FILLER_34_221
*956 FILLER_34_233
*957 FILLER_34_245
*958 FILLER_34_251
*959 FILLER_34_253
*960 FILLER_34_265
*961 FILLER_34_27
*962 FILLER_34_277
*963 FILLER_34_289
*964 FILLER_34_297
*965 FILLER_34_32
*966 FILLER_34_44
*967 FILLER_34_56
*968 FILLER_34_68
*969 FILLER_34_79
*970 FILLER_34_83
*971 FILLER_34_85
*972 FILLER_34_97
*973 FILLER_35_105
*974 FILLER_35_11
*975 FILLER_35_111
*976 FILLER_35_113
*977 FILLER_35_125
*978 FILLER_35_137
*979 FILLER_35_149
*980 FILLER_35_161
*981 FILLER_35_167
*982 FILLER_35_169
*983 FILLER_35_181
*984 FILLER_35_193
*985 FILLER_35_205
*986 FILLER_35_217
*987 FILLER_35_223
*988 FILLER_35_225
*989 FILLER_35_237
*990 FILLER_35_24
*991 FILLER_35_249
*992 FILLER_35_261
*993 FILLER_35_273
*994 FILLER_35_279
*995 FILLER_35_281
*996 FILLER_35_293
*997 FILLER_35_3
*998 FILLER_35_36
*999 FILLER_35_48
*1000 FILLER_35_57
*1001 FILLER_35_69
*1002 FILLER_35_81
*1003 FILLER_35_93
*1004 FILLER_36_109
*1005 FILLER_36_121
*1006 FILLER_36_133
*1007 FILLER_36_139
*1008 FILLER_36_141
*1009 FILLER_36_15
*1010 FILLER_36_153
*1011 FILLER_36_165
*1012 FILLER_36_177
*1013 FILLER_36_189
*1014 FILLER_36_195
*1015 FILLER_36_197
*1016 FILLER_36_209
*1017 FILLER_36_221
*1018 FILLER_36_233
*1019 FILLER_36_245
*1020 FILLER_36_251
*1021 FILLER_36_253
*1022 FILLER_36_265
*1023 FILLER_36_27
*1024 FILLER_36_277
*1025 FILLER_36_289
*1026 FILLER_36_29
*1027 FILLER_36_297
*1028 FILLER_36_3
*1029 FILLER_36_33
*1030 FILLER_36_37
*1031 FILLER_36_49
*1032 FILLER_36_61
*1033 FILLER_36_73
*1034 FILLER_36_81
*1035 FILLER_36_85
*1036 FILLER_36_97
*1037 FILLER_37_105
*1038 FILLER_37_111
*1039 FILLER_37_113
*1040 FILLER_37_125
*1041 FILLER_37_137
*1042 FILLER_37_14
*1043 FILLER_37_149
*1044 FILLER_37_161
*1045 FILLER_37_167
*1046 FILLER_37_169
*1047 FILLER_37_181
*1048 FILLER_37_193
*1049 FILLER_37_205
*1050 FILLER_37_217
*1051 FILLER_37_223
*1052 FILLER_37_225
*1053 FILLER_37_237
*1054 FILLER_37_249
*1055 FILLER_37_25
*1056 FILLER_37_261
*1057 FILLER_37_273
*1058 FILLER_37_279
*1059 FILLER_37_281
*1060 FILLER_37_293
*1061 FILLER_37_33
*1062 FILLER_37_41
*1063 FILLER_37_53
*1064 FILLER_37_57
*1065 FILLER_37_69
*1066 FILLER_37_7
*1067 FILLER_37_81
*1068 FILLER_37_93
*1069 FILLER_38_109
*1070 FILLER_38_121
*1071 FILLER_38_133
*1072 FILLER_38_139
*1073 FILLER_38_141
*1074 FILLER_38_15
*1075 FILLER_38_153
*1076 FILLER_38_165
*1077 FILLER_38_177
*1078 FILLER_38_189
*1079 FILLER_38_195
*1080 FILLER_38_197
*1081 FILLER_38_209
*1082 FILLER_38_221
*1083 FILLER_38_23
*1084 FILLER_38_233
*1085 FILLER_38_245
*1086 FILLER_38_251
*1087 FILLER_38_253
*1088 FILLER_38_265
*1089 FILLER_38_27
*1090 FILLER_38_277
*1091 FILLER_38_289
*1092 FILLER_38_297
*1093 FILLER_38_3
*1094 FILLER_38_32
*1095 FILLER_38_44
*1096 FILLER_38_56
*1097 FILLER_38_68
*1098 FILLER_38_80
*1099 FILLER_38_85
*1100 FILLER_38_97
*1101 FILLER_39_105
*1102 FILLER_39_111
*1103 FILLER_39_113
*1104 FILLER_39_125
*1105 FILLER_39_137
*1106 FILLER_39_149
*1107 FILLER_39_161
*1108 FILLER_39_167
*1109 FILLER_39_169
*1110 FILLER_39_181
*1111 FILLER_39_193
*1112 FILLER_39_205
*1113 FILLER_39_217
*1114 FILLER_39_223
*1115 FILLER_39_225
*1116 FILLER_39_237
*1117 FILLER_39_249
*1118 FILLER_39_261
*1119 FILLER_39_273
*1120 FILLER_39_279
*1121 FILLER_39_281
*1122 FILLER_39_293
*1123 FILLER_39_3
*1124 FILLER_39_31
*1125 FILLER_39_49
*1126 FILLER_39_55
*1127 FILLER_39_57
*1128 FILLER_39_69
*1129 FILLER_39_81
*1130 FILLER_39_93
*1131 FILLER_3_105
*1132 FILLER_3_111
*1133 FILLER_3_113
*1134 FILLER_3_125
*1135 FILLER_3_137
*1136 FILLER_3_149
*1137 FILLER_3_161
*1138 FILLER_3_167
*1139 FILLER_3_169
*1140 FILLER_3_181
*1141 FILLER_3_193
*1142 FILLER_3_205
*1143 FILLER_3_217
*1144 FILLER_3_223
*1145 FILLER_3_225
*1146 FILLER_3_237
*1147 FILLER_3_249
*1148 FILLER_3_261
*1149 FILLER_3_27
*1150 FILLER_3_273
*1151 FILLER_3_279
*1152 FILLER_3_281
*1153 FILLER_3_293
*1154 FILLER_3_3
*1155 FILLER_3_39
*1156 FILLER_3_51
*1157 FILLER_3_55
*1158 FILLER_3_57
*1159 FILLER_3_69
*1160 FILLER_3_81
*1161 FILLER_3_93
*1162 FILLER_40_109
*1163 FILLER_40_121
*1164 FILLER_40_133
*1165 FILLER_40_139
*1166 FILLER_40_141
*1167 FILLER_40_153
*1168 FILLER_40_165
*1169 FILLER_40_177
*1170 FILLER_40_18
*1171 FILLER_40_189
*1172 FILLER_40_195
*1173 FILLER_40_197
*1174 FILLER_40_209
*1175 FILLER_40_221
*1176 FILLER_40_233
*1177 FILLER_40_245
*1178 FILLER_40_251
*1179 FILLER_40_253
*1180 FILLER_40_26
*1181 FILLER_40_265
*1182 FILLER_40_277
*1183 FILLER_40_289
*1184 FILLER_40_297
*1185 FILLER_40_3
*1186 FILLER_40_38
*1187 FILLER_40_50
*1188 FILLER_40_62
*1189 FILLER_40_74
*1190 FILLER_40_82
*1191 FILLER_40_85
*1192 FILLER_40_97
*1193 FILLER_41_105
*1194 FILLER_41_111
*1195 FILLER_41_113
*1196 FILLER_41_125
*1197 FILLER_41_137
*1198 FILLER_41_149
*1199 FILLER_41_161
*1200 FILLER_41_167
*1201 FILLER_41_169
*1202 FILLER_41_181
*1203 FILLER_41_193
*1204 FILLER_41_20
*1205 FILLER_41_205
*1206 FILLER_41_217
*1207 FILLER_41_223
*1208 FILLER_41_225
*1209 FILLER_41_237
*1210 FILLER_41_249
*1211 FILLER_41_261
*1212 FILLER_41_273
*1213 FILLER_41_279
*1214 FILLER_41_281
*1215 FILLER_41_293
*1216 FILLER_41_3
*1217 FILLER_41_32
*1218 FILLER_41_44
*1219 FILLER_41_57
*1220 FILLER_41_69
*1221 FILLER_41_81
*1222 FILLER_41_9
*1223 FILLER_41_93
*1224 FILLER_42_109
*1225 FILLER_42_121
*1226 FILLER_42_133
*1227 FILLER_42_139
*1228 FILLER_42_141
*1229 FILLER_42_153
*1230 FILLER_42_16
*1231 FILLER_42_165
*1232 FILLER_42_177
*1233 FILLER_42_189
*1234 FILLER_42_195
*1235 FILLER_42_197
*1236 FILLER_42_209
*1237 FILLER_42_221
*1238 FILLER_42_233
*1239 FILLER_42_245
*1240 FILLER_42_251
*1241 FILLER_42_253
*1242 FILLER_42_265
*1243 FILLER_42_277
*1244 FILLER_42_289
*1245 FILLER_42_29
*1246 FILLER_42_297
*1247 FILLER_42_41
*1248 FILLER_42_53
*1249 FILLER_42_65
*1250 FILLER_42_77
*1251 FILLER_42_83
*1252 FILLER_42_85
*1253 FILLER_42_97
*1254 FILLER_43_105
*1255 FILLER_43_111
*1256 FILLER_43_113
*1257 FILLER_43_125
*1258 FILLER_43_137
*1259 FILLER_43_149
*1260 FILLER_43_15
*1261 FILLER_43_161
*1262 FILLER_43_167
*1263 FILLER_43_169
*1264 FILLER_43_181
*1265 FILLER_43_193
*1266 FILLER_43_205
*1267 FILLER_43_217
*1268 FILLER_43_223
*1269 FILLER_43_225
*1270 FILLER_43_237
*1271 FILLER_43_249
*1272 FILLER_43_261
*1273 FILLER_43_27
*1274 FILLER_43_273
*1275 FILLER_43_279
*1276 FILLER_43_281
*1277 FILLER_43_293
*1278 FILLER_43_3
*1279 FILLER_43_45
*1280 FILLER_43_53
*1281 FILLER_43_57
*1282 FILLER_43_69
*1283 FILLER_43_81
*1284 FILLER_43_93
*1285 FILLER_44_109
*1286 FILLER_44_121
*1287 FILLER_44_133
*1288 FILLER_44_139
*1289 FILLER_44_141
*1290 FILLER_44_15
*1291 FILLER_44_153
*1292 FILLER_44_165
*1293 FILLER_44_177
*1294 FILLER_44_189
*1295 FILLER_44_195
*1296 FILLER_44_197
*1297 FILLER_44_209
*1298 FILLER_44_221
*1299 FILLER_44_233
*1300 FILLER_44_245
*1301 FILLER_44_251
*1302 FILLER_44_253
*1303 FILLER_44_265
*1304 FILLER_44_27
*1305 FILLER_44_277
*1306 FILLER_44_289
*1307 FILLER_44_29
*1308 FILLER_44_297
*1309 FILLER_44_3
*1310 FILLER_44_41
*1311 FILLER_44_53
*1312 FILLER_44_65
*1313 FILLER_44_77
*1314 FILLER_44_83
*1315 FILLER_44_85
*1316 FILLER_44_97
*1317 FILLER_45_105
*1318 FILLER_45_111
*1319 FILLER_45_113
*1320 FILLER_45_125
*1321 FILLER_45_137
*1322 FILLER_45_149
*1323 FILLER_45_15
*1324 FILLER_45_161
*1325 FILLER_45_167
*1326 FILLER_45_169
*1327 FILLER_45_181
*1328 FILLER_45_193
*1329 FILLER_45_205
*1330 FILLER_45_21
*1331 FILLER_45_217
*1332 FILLER_45_223
*1333 FILLER_45_225
*1334 FILLER_45_237
*1335 FILLER_45_249
*1336 FILLER_45_26
*1337 FILLER_45_261
*1338 FILLER_45_273
*1339 FILLER_45_279
*1340 FILLER_45_281
*1341 FILLER_45_293
*1342 FILLER_45_3
*1343 FILLER_45_38
*1344 FILLER_45_50
*1345 FILLER_45_57
*1346 FILLER_45_69
*1347 FILLER_45_81
*1348 FILLER_45_93
*1349 FILLER_46_109
*1350 FILLER_46_121
*1351 FILLER_46_133
*1352 FILLER_46_139
*1353 FILLER_46_141
*1354 FILLER_46_15
*1355 FILLER_46_153
*1356 FILLER_46_165
*1357 FILLER_46_177
*1358 FILLER_46_189
*1359 FILLER_46_195
*1360 FILLER_46_197
*1361 FILLER_46_209
*1362 FILLER_46_221
*1363 FILLER_46_233
*1364 FILLER_46_245
*1365 FILLER_46_251
*1366 FILLER_46_253
*1367 FILLER_46_265
*1368 FILLER_46_27
*1369 FILLER_46_277
*1370 FILLER_46_289
*1371 FILLER_46_29
*1372 FILLER_46_297
*1373 FILLER_46_3
*1374 FILLER_46_41
*1375 FILLER_46_53
*1376 FILLER_46_65
*1377 FILLER_46_77
*1378 FILLER_46_83
*1379 FILLER_46_85
*1380 FILLER_46_97
*1381 FILLER_47_105
*1382 FILLER_47_111
*1383 FILLER_47_113
*1384 FILLER_47_125
*1385 FILLER_47_137
*1386 FILLER_47_149
*1387 FILLER_47_15
*1388 FILLER_47_161
*1389 FILLER_47_167
*1390 FILLER_47_169
*1391 FILLER_47_181
*1392 FILLER_47_193
*1393 FILLER_47_205
*1394 FILLER_47_217
*1395 FILLER_47_223
*1396 FILLER_47_225
*1397 FILLER_47_237
*1398 FILLER_47_249
*1399 FILLER_47_261
*1400 FILLER_47_27
*1401 FILLER_47_273
*1402 FILLER_47_279
*1403 FILLER_47_281
*1404 FILLER_47_293
*1405 FILLER_47_3
*1406 FILLER_47_39
*1407 FILLER_47_51
*1408 FILLER_47_55
*1409 FILLER_47_57
*1410 FILLER_47_69
*1411 FILLER_47_81
*1412 FILLER_47_93
*1413 FILLER_48_109
*1414 FILLER_48_121
*1415 FILLER_48_133
*1416 FILLER_48_139
*1417 FILLER_48_141
*1418 FILLER_48_15
*1419 FILLER_48_153
*1420 FILLER_48_165
*1421 FILLER_48_177
*1422 FILLER_48_189
*1423 FILLER_48_195
*1424 FILLER_48_197
*1425 FILLER_48_209
*1426 FILLER_48_221
*1427 FILLER_48_233
*1428 FILLER_48_245
*1429 FILLER_48_251
*1430 FILLER_48_253
*1431 FILLER_48_265
*1432 FILLER_48_27
*1433 FILLER_48_277
*1434 FILLER_48_289
*1435 FILLER_48_29
*1436 FILLER_48_297
*1437 FILLER_48_3
*1438 FILLER_48_41
*1439 FILLER_48_53
*1440 FILLER_48_65
*1441 FILLER_48_77
*1442 FILLER_48_83
*1443 FILLER_48_85
*1444 FILLER_48_97
*1445 FILLER_49_105
*1446 FILLER_49_111
*1447 FILLER_49_113
*1448 FILLER_49_125
*1449 FILLER_49_137
*1450 FILLER_49_149
*1451 FILLER_49_15
*1452 FILLER_49_161
*1453 FILLER_49_167
*1454 FILLER_49_169
*1455 FILLER_49_181
*1456 FILLER_49_193
*1457 FILLER_49_205
*1458 FILLER_49_217
*1459 FILLER_49_223
*1460 FILLER_49_225
*1461 FILLER_49_237
*1462 FILLER_49_249
*1463 FILLER_49_261
*1464 FILLER_49_27
*1465 FILLER_49_273
*1466 FILLER_49_279
*1467 FILLER_49_281
*1468 FILLER_49_293
*1469 FILLER_49_3
*1470 FILLER_49_39
*1471 FILLER_49_51
*1472 FILLER_49_55
*1473 FILLER_49_57
*1474 FILLER_49_69
*1475 FILLER_49_81
*1476 FILLER_49_93
*1477 FILLER_4_109
*1478 FILLER_4_11
*1479 FILLER_4_121
*1480 FILLER_4_133
*1481 FILLER_4_139
*1482 FILLER_4_141
*1483 FILLER_4_153
*1484 FILLER_4_165
*1485 FILLER_4_177
*1486 FILLER_4_189
*1487 FILLER_4_195
*1488 FILLER_4_197
*1489 FILLER_4_209
*1490 FILLER_4_221
*1491 FILLER_4_23
*1492 FILLER_4_233
*1493 FILLER_4_245
*1494 FILLER_4_251
*1495 FILLER_4_253
*1496 FILLER_4_265
*1497 FILLER_4_27
*1498 FILLER_4_277
*1499 FILLER_4_289
*1500 FILLER_4_29
*1501 FILLER_4_297
*1502 FILLER_4_3
*1503 FILLER_4_41
*1504 FILLER_4_53
*1505 FILLER_4_65
*1506 FILLER_4_77
*1507 FILLER_4_83
*1508 FILLER_4_85
*1509 FILLER_4_97
*1510 FILLER_50_109
*1511 FILLER_50_121
*1512 FILLER_50_133
*1513 FILLER_50_139
*1514 FILLER_50_141
*1515 FILLER_50_15
*1516 FILLER_50_153
*1517 FILLER_50_165
*1518 FILLER_50_177
*1519 FILLER_50_189
*1520 FILLER_50_195
*1521 FILLER_50_197
*1522 FILLER_50_209
*1523 FILLER_50_221
*1524 FILLER_50_233
*1525 FILLER_50_245
*1526 FILLER_50_251
*1527 FILLER_50_253
*1528 FILLER_50_265
*1529 FILLER_50_27
*1530 FILLER_50_277
*1531 FILLER_50_289
*1532 FILLER_50_29
*1533 FILLER_50_297
*1534 FILLER_50_3
*1535 FILLER_50_41
*1536 FILLER_50_53
*1537 FILLER_50_65
*1538 FILLER_50_77
*1539 FILLER_50_83
*1540 FILLER_50_85
*1541 FILLER_50_97
*1542 FILLER_51_105
*1543 FILLER_51_111
*1544 FILLER_51_113
*1545 FILLER_51_125
*1546 FILLER_51_137
*1547 FILLER_51_149
*1548 FILLER_51_15
*1549 FILLER_51_161
*1550 FILLER_51_167
*1551 FILLER_51_169
*1552 FILLER_51_181
*1553 FILLER_51_193
*1554 FILLER_51_205
*1555 FILLER_51_217
*1556 FILLER_51_223
*1557 FILLER_51_225
*1558 FILLER_51_237
*1559 FILLER_51_249
*1560 FILLER_51_261
*1561 FILLER_51_27
*1562 FILLER_51_273
*1563 FILLER_51_279
*1564 FILLER_51_281
*1565 FILLER_51_293
*1566 FILLER_51_3
*1567 FILLER_51_39
*1568 FILLER_51_51
*1569 FILLER_51_55
*1570 FILLER_51_57
*1571 FILLER_51_69
*1572 FILLER_51_81
*1573 FILLER_51_93
*1574 FILLER_52_109
*1575 FILLER_52_121
*1576 FILLER_52_133
*1577 FILLER_52_139
*1578 FILLER_52_141
*1579 FILLER_52_15
*1580 FILLER_52_153
*1581 FILLER_52_165
*1582 FILLER_52_177
*1583 FILLER_52_189
*1584 FILLER_52_195
*1585 FILLER_52_197
*1586 FILLER_52_209
*1587 FILLER_52_221
*1588 FILLER_52_233
*1589 FILLER_52_245
*1590 FILLER_52_251
*1591 FILLER_52_253
*1592 FILLER_52_265
*1593 FILLER_52_27
*1594 FILLER_52_277
*1595 FILLER_52_289
*1596 FILLER_52_29
*1597 FILLER_52_297
*1598 FILLER_52_3
*1599 FILLER_52_41
*1600 FILLER_52_53
*1601 FILLER_52_65
*1602 FILLER_52_77
*1603 FILLER_52_83
*1604 FILLER_52_85