*SPEF "ieee 1481-1999"
*DESIGN "wren6991_whisk_tt2_io_wrapper"
*DATE "11:11:11 Fri 11 11, 1111"
*VENDOR "OpenRCX"
*PROGRAM "Parallel Extraction"
*VERSION "1.0"
*DESIGN_FLOW "NAME_SCOPE LOCAL" "PIN_CAP NONE"
*DIVIDER /
*DELIMITER :
*BUS_DELIMITER []
*T_UNIT 1 NS
*C_UNIT 1 PF
*R_UNIT 1 OHM
*L_UNIT 1 HENRY

*NAME_MAP
*1 io_in[0]
*2 io_in[1]
*3 io_in[2]
*4 io_in[3]
*5 io_in[4]
*6 io_in[5]
*7 io_in[6]
*8 io_in[7]
*9 io_out[0]
*10 io_out[1]
*11 io_out[2]
*12 io_out[3]
*13 io_out[4]
*14 io_out[5]
*15 io_out[6]
*16 net18
*19 _000_
*20 _001_
*21 _002_
*22 _003_
*23 _012_
*24 _013_
*25 _014_
*26 _015_
*27 _016_
*28 _017_
*29 _018_
*30 _019_
*31 _020_
*32 _021_
*33 _022_
*34 _023_
*35 _024_
*36 _025_
*37 _026_
*38 _027_
*39 _028_
*40 _029_
*41 _030_
*42 _031_
*43 _032_
*44 _033_
*45 _034_
*46 _035_
*47 _036_
*48 _037_
*49 _038_
*50 _039_
*51 _040_
*52 _041_
*53 _042_
*54 _043_
*55 _044_
*56 _045_
*57 _046_
*58 _047_
*59 _048_
*60 _049_
*61 _050_
*62 _051_
*63 _052_
*64 _053_
*65 _054_
*66 _055_
*67 _056_
*68 _057_
*69 _058_
*70 _059_
*71 _060_
*72 _061_
*73 _062_
*74 _063_
*75 _064_
*76 _065_
*77 _066_
*78 _067_
*79 _068_
*80 _069_
*81 _070_
*82 _071_
*83 _072_
*84 _073_
*85 _074_
*86 _075_
*87 _076_
*88 _077_
*89 _078_
*90 _079_
*91 _080_
*92 _081_
*93 _082_
*94 _083_
*95 _084_
*96 _085_
*97 _086_
*98 _087_
*99 _088_
*100 _089_
*101 _090_
*102 _091_
*103 _092_
*104 _093_
*105 _094_
*106 _095_
*107 _096_
*108 _097_
*109 _098_
*110 _099_
*111 _100_
*112 _101_
*113 _102_
*114 _103_
*115 _104_
*116 _105_
*117 _106_
*118 _107_
*119 _108_
*120 _109_
*121 _110_
*122 _111_
*123 _112_
*124 _113_
*125 _114_
*126 _115_
*127 _116_
*128 _117_
*129 _118_
*130 _119_
*131 _120_
*132 _121_
*133 _122_
*134 _123_
*135 _124_
*136 _125_
*137 _126_
*138 _127_
*139 _128_
*140 _129_
*141 _130_
*142 _131_
*143 _132_
*144 _133_
*145 _134_
*146 _135_
*147 _136_
*148 _137_
*149 _138_
*150 _139_
*151 _140_
*152 _141_
*153 _142_
*154 _143_
*155 _144_
*156 _145_
*157 _146_
*158 _147_
*159 _148_
*160 _149_
*161 _150_
*162 _151_
*163 _152_
*164 _153_
*165 _154_
*166 _155_
*167 _156_
*168 _157_
*169 _158_
*170 _159_
*171 _160_
*172 _161_
*173 _162_
*174 _163_
*175 _164_
*176 _165_
*177 _166_
*178 _167_
*179 _168_
*180 _169_
*181 _170_
*182 _171_
*183 _172_
*184 _173_
*185 _174_
*186 _175_
*187 _176_
*188 _177_
*189 _178_
*190 _179_
*191 _180_
*192 _181_
*193 _182_
*194 _183_
*195 _184_
*196 _185_
*197 _186_
*198 _187_
*199 _188_
*200 _189_
*201 _190_
*202 _191_
*203 _192_
*204 _193_
*205 _194_
*206 _195_
*207 _196_
*208 _197_
*209 _198_
*210 _199_
*211 _200_
*212 _201_
*213 _202_
*214 _203_
*215 _204_
*216 _205_
*217 _206_
*218 _207_
*219 _208_
*220 _209_
*221 _210_
*222 _211_
*223 _212_
*224 _213_
*225 _214_
*226 _215_
*227 _216_
*228 _217_
*229 _218_
*230 _219_
*231 _220_
*232 _221_
*233 _222_
*234 _223_
*235 _224_
*236 _225_
*237 _226_
*238 _227_
*239 _228_
*240 _229_
*241 _230_
*242 _231_
*243 _232_
*244 _233_
*245 _234_
*246 _235_
*247 _236_
*248 _237_
*249 _238_
*250 _239_
*251 _240_
*252 _241_
*253 _242_
*254 _243_
*255 _244_
*256 _245_
*257 _246_
*258 _247_
*259 _248_
*260 _249_
*261 _250_
*262 _251_
*263 _252_
*264 _253_
*265 _254_
*266 _255_
*267 _256_
*268 _257_
*269 _258_
*270 _259_
*271 _260_
*272 _261_
*273 _262_
*274 _263_
*275 _264_
*276 _265_
*277 _266_
*278 _267_
*279 _268_
*280 _269_
*281 _270_
*282 _271_
*283 _272_
*284 _273_
*285 _274_
*286 _275_
*287 _276_
*288 _277_
*289 _278_
*290 _279_
*291 _280_
*292 _281_
*293 _282_
*294 _283_
*295 _284_
*296 _285_
*297 _286_
*298 _287_
*299 _288_
*300 _289_
*301 _290_
*302 _291_
*303 _292_
*304 _293_
*305 _294_
*306 _295_
*307 _296_
*308 _297_
*309 _298_
*310 clknet_0__245_
*311 clknet_0__298_
*312 clknet_0_io_in[0]
*313 clknet_1_0__leaf__245_
*314 clknet_1_0__leaf__298_
*315 clknet_1_1__leaf__245_
*316 clknet_1_1__leaf__298_
*317 clknet_4_0_0_io_in[0]
*318 clknet_4_10_0_io_in[0]
*319 clknet_4_11_0_io_in[0]
*320 clknet_4_12_0_io_in[0]
*321 clknet_4_13_0_io_in[0]
*322 clknet_4_14_0_io_in[0]
*323 clknet_4_15_0_io_in[0]
*324 clknet_4_1_0_io_in[0]
*325 clknet_4_2_0_io_in[0]
*326 clknet_4_3_0_io_in[0]
*327 clknet_4_4_0_io_in[0]
*328 clknet_4_5_0_io_in[0]
*329 clknet_4_6_0_io_in[0]
*330 clknet_4_7_0_io_in[0]
*331 clknet_4_8_0_io_in[0]
*332 clknet_4_9_0_io_in[0]
*333 net1
*334 net10
*335 net100
*336 net101
*337 net102
*338 net103
*339 net104
*340 net105
*341 net106
*342 net107
*343 net108
*344 net109
*345 net11
*346 net110
*347 net111
*348 net112
*349 net113
*350 net114
*351 net115
*352 net116
*353 net117
*354 net118
*355 net119
*356 net12
*357 net120
*358 net121
*359 net122
*360 net123
*361 net124
*362 net125
*363 net126
*364 net127
*365 net128
*366 net129
*367 net13
*368 net130
*369 net131
*370 net132
*371 net133
*372 net134
*373 net135
*374 net14
*375 net15
*376 net16
*377 net17
*378 net19
*379 net2
*380 net20
*381 net21
*382 net22
*383 net23
*384 net24
*385 net25
*386 net26
*387 net27
*388 net28
*389 net29
*390 net3
*391 net30
*392 net31
*393 net32
*394 net33
*395 net34
*396 net35
*397 net36
*398 net37
*399 net38
*400 net39
*401 net4
*402 net40
*403 net41
*404 net42
*405 net43
*406 net44
*407 net45
*408 net46
*409 net47
*410 net48
*411 net49
*412 net5
*413 net50
*414 net51
*415 net52
*416 net53
*417 net54
*418 net55
*419 net56
*420 net57
*421 net58
*422 net59
*423 net6
*424 net60
*425 net61
*426 net62
*427 net63
*428 net64
*429 net65
*430 net66
*431 net67
*432 net68
*433 net69
*434 net7
*435 net70
*436 net71
*437 net72
*438 net73
*439 net74
*440 net75
*441 net76
*442 net77
*443 net78
*444 net79
*445 net8
*446 net80
*447 net81
*448 net82
*449 net83
*450 net84
*451 net85
*452 net86
*453 net87
*454 net88
*455 net89
*456 net9
*457 net90
*458 net91
*459 net92
*460 net93
*461 net94
*462 net95
*463 net96
*464 net97
*465 net98
*466 net99
*467 top_u\.cpu\.alu_ci
*468 top_u\.cpu\.alu_co
*469 top_u\.cpu\.ar_dl
*470 top_u\.cpu\.ar_dr
*471 top_u\.cpu\.ar_l_nr
*472 top_u\.cpu\.ar_ql_next
*473 top_u\.cpu\.ar_qr
*474 top_u\.cpu\.ar_u\.shift_stage\[10\]\.flop_u\.q
*475 top_u\.cpu\.ar_u\.shift_stage\[11\]\.flop_u\.q
*476 top_u\.cpu\.ar_u\.shift_stage\[12\]\.flop_u\.q
*477 top_u\.cpu\.ar_u\.shift_stage\[13\]\.flop_u\.q
*478 top_u\.cpu\.ar_u\.shift_stage\[14\]\.flop_u\.q
*479 top_u\.cpu\.ar_u\.shift_stage\[2\]\.flop_u\.q
*480 top_u\.cpu\.ar_u\.shift_stage\[3\]\.flop_u\.q
*481 top_u\.cpu\.ar_u\.shift_stage\[4\]\.flop_u\.q
*482 top_u\.cpu\.ar_u\.shift_stage\[5\]\.flop_u\.q
*483 top_u\.cpu\.ar_u\.shift_stage\[6\]\.flop_u\.q
*484 top_u\.cpu\.ar_u\.shift_stage\[7\]\.flop_u\.q
*485 top_u\.cpu\.ar_u\.shift_stage\[8\]\.flop_u\.q
*486 top_u\.cpu\.ar_u\.shift_stage\[9\]\.flop_u\.q
*487 top_u\.cpu\.bit_ctr\[0\]
*488 top_u\.cpu\.bit_ctr\[1\]
*489 top_u\.cpu\.bit_ctr\[2\]
*490 top_u\.cpu\.bit_ctr\[3\]
*491 top_u\.cpu\.flag_c
*492 top_u\.cpu\.flag_n
*493 top_u\.cpu\.flag_z
*494 top_u\.cpu\.instr\[0\]
*495 top_u\.cpu\.instr\[10\]
*496 top_u\.cpu\.instr\[11\]
*497 top_u\.cpu\.instr\[12\]
*498 top_u\.cpu\.instr\[13\]
*499 top_u\.cpu\.instr\[14\]
*500 top_u\.cpu\.instr\[15\]
*501 top_u\.cpu\.instr\[1\]
*502 top_u\.cpu\.instr\[2\]
*503 top_u\.cpu\.instr\[3\]
*504 top_u\.cpu\.instr\[4\]
*505 top_u\.cpu\.instr\[5\]
*506 top_u\.cpu\.instr\[6\]
*507 top_u\.cpu\.instr\[7\]
*508 top_u\.cpu\.instr\[8\]
*509 top_u\.cpu\.instr\[9\]
*510 top_u\.cpu\.instr_cond_true
*511 top_u\.cpu\.instr_has_imm_operand
*512 top_u\.cpu\.ioport_latch_i_next
*513 top_u\.cpu\.ioport_latch_o_next
*514 top_u\.cpu\.ioport_sck_en_next
*515 top_u\.cpu\.ioport_sdo_next
*516 top_u\.cpu\.mem_csn_next
*517 top_u\.cpu\.mem_sck_en_next
*518 top_u\.cpu\.mem_sdo_next
*519 top_u\.cpu\.pc_ci
*520 top_u\.cpu\.pc_co
*521 top_u\.cpu\.pc_dl
*522 top_u\.cpu\.pc_q_all\[0\]
*523 top_u\.cpu\.pc_q_all\[10\]
*524 top_u\.cpu\.pc_q_all\[11\]
*525 top_u\.cpu\.pc_q_all\[12\]
*526 top_u\.cpu\.pc_q_all\[13\]
*527 top_u\.cpu\.pc_q_all\[14\]
*528 top_u\.cpu\.pc_q_all\[15\]
*529 top_u\.cpu\.pc_q_all\[1\]
*530 top_u\.cpu\.pc_q_all\[2\]
*531 top_u\.cpu\.pc_q_all\[3\]
*532 top_u\.cpu\.pc_q_all\[4\]
*533 top_u\.cpu\.pc_q_all\[5\]
*534 top_u\.cpu\.pc_q_all\[6\]
*535 top_u\.cpu\.pc_q_all\[7\]
*536 top_u\.cpu\.pc_q_all\[8\]
*537 top_u\.cpu\.pc_q_all\[9\]
*538 top_u\.cpu\.regfile_u\.loop_gprs\[0\]\.gpr_shifter\.qr
*539 top_u\.cpu\.regfile_u\.loop_gprs\[0\]\.gpr_shifter\.reg_u\.dl
*540 top_u\.cpu\.regfile_u\.loop_gprs\[0\]\.gpr_shifter\.reg_u\.q_all\[10\]
*541 top_u\.cpu\.regfile_u\.loop_gprs\[0\]\.gpr_shifter\.reg_u\.q_all\[11\]
*542 top_u\.cpu\.regfile_u\.loop_gprs\[0\]\.gpr_shifter\.reg_u\.q_all\[12\]
*543 top_u\.cpu\.regfile_u\.loop_gprs\[0\]\.gpr_shifter\.reg_u\.q_all\[13\]
*544 top_u\.cpu\.regfile_u\.loop_gprs\[0\]\.gpr_shifter\.reg_u\.q_all\[14\]
*545 top_u\.cpu\.regfile_u\.loop_gprs\[0\]\.gpr_shifter\.reg_u\.q_all\[15\]
*546 top_u\.cpu\.regfile_u\.loop_gprs\[0\]\.gpr_shifter\.reg_u\.q_all\[1\]
*547 top_u\.cpu\.regfile_u\.loop_gprs\[0\]\.gpr_shifter\.reg_u\.q_all\[2\]
*548 top_u\.cpu\.regfile_u\.loop_gprs\[0\]\.gpr_shifter\.reg_u\.q_all\[3\]
*549 top_u\.cpu\.regfile_u\.loop_gprs\[0\]\.gpr_shifter\.reg_u\.q_all\[4\]
*550 top_u\.cpu\.regfile_u\.loop_gprs\[0\]\.gpr_shifter\.reg_u\.q_all\[5\]
*551 top_u\.cpu\.regfile_u\.loop_gprs\[0\]\.gpr_shifter\.reg_u\.q_all\[6\]
*552 top_u\.cpu\.regfile_u\.loop_gprs\[0\]\.gpr_shifter\.reg_u\.q_all\[7\]
*553 top_u\.cpu\.regfile_u\.loop_gprs\[0\]\.gpr_shifter\.reg_u\.q_all\[8\]
*554 top_u\.cpu\.regfile_u\.loop_gprs\[0\]\.gpr_shifter\.reg_u\.q_all\[9\]
*555 top_u\.cpu\.regfile_u\.loop_gprs\[1\]\.gpr_shifter\.qr
*556 top_u\.cpu\.regfile_u\.loop_gprs\[1\]\.gpr_shifter\.reg_u\.dl
*557 top_u\.cpu\.regfile_u\.loop_gprs\[1\]\.gpr_shifter\.reg_u\.q_all\[10\]
*558 top_u\.cpu\.regfile_u\.loop_gprs\[1\]\.gpr_shifter\.reg_u\.q_all\[11\]
*559 top_u\.cpu\.regfile_u\.loop_gprs\[1\]\.gpr_shifter\.reg_u\.q_all\[12\]
*560 top_u\.cpu\.regfile_u\.loop_gprs\[1\]\.gpr_shifter\.reg_u\.q_all\[13\]
*561 top_u\.cpu\.regfile_u\.loop_gprs\[1\]\.gpr_shifter\.reg_u\.q_all\[14\]
*562 top_u\.cpu\.regfile_u\.loop_gprs\[1\]\.gpr_shifter\.reg_u\.q_all\[15\]
*563 top_u\.cpu\.regfile_u\.loop_gprs\[1\]\.gpr_shifter\.reg_u\.q_all\[1\]
*564 top_u\.cpu\.regfile_u\.loop_gprs\[1\]\.gpr_shifter\.reg_u\.q_all\[2\]
*565 top_u\.cpu\.regfile_u\.loop_gprs\[1\]\.gpr_shifter\.reg_u\.q_all\[3\]
*566 top_u\.cpu\.regfile_u\.loop_gprs\[1\]\.gpr_shifter\.reg_u\.q_all\[4\]
*567 top_u\.cpu\.regfile_u\.loop_gprs\[1\]\.gpr_shifter\.reg_u\.q_all\[5\]
*568 top_u\.cpu\.regfile_u\.loop_gprs\[1\]\.gpr_shifter\.reg_u\.q_all\[6\]
*569 top_u\.cpu\.regfile_u\.loop_gprs\[1\]\.gpr_shifter\.reg_u\.q_all\[7\]
*570 top_u\.cpu\.regfile_u\.loop_gprs\[1\]\.gpr_shifter\.reg_u\.q_all\[8\]
*571 top_u\.cpu\.regfile_u\.loop_gprs\[1\]\.gpr_shifter\.reg_u\.q_all\[9\]
*572 top_u\.cpu\.regfile_u\.loop_gprs\[2\]\.gpr_shifter\.qr
*573 top_u\.cpu\.regfile_u\.loop_gprs\[2\]\.gpr_shifter\.reg_u\.dl
*574 top_u\.cpu\.regfile_u\.loop_gprs\[2\]\.gpr_shifter\.reg_u\.q_all\[10\]
*575 top_u\.cpu\.regfile_u\.loop_gprs\[2\]\.gpr_shifter\.reg_u\.q_all\[11\]
*576 top_u\.cpu\.regfile_u\.loop_gprs\[2\]\.gpr_shifter\.reg_u\.q_all\[12\]
*577 top_u\.cpu\.regfile_u\.loop_gprs\[2\]\.gpr_shifter\.reg_u\.q_all\[13\]
*578 top_u\.cpu\.regfile_u\.loop_gprs\[2\]\.gpr_shifter\.reg_u\.q_all\[14\]
*579 top_u\.cpu\.regfile_u\.loop_gprs\[2\]\.gpr_shifter\.reg_u\.q_all\[15\]
*580 top_u\.cpu\.regfile_u\.loop_gprs\[2\]\.gpr_shifter\.reg_u\.q_all\[1\]
*581 top_u\.cpu\.regfile_u\.loop_gprs\[2\]\.gpr_shifter\.reg_u\.q_all\[2\]
*582 top_u\.cpu\.regfile_u\.loop_gprs\[2\]\.gpr_shifter\.reg_u\.q_all\[3\]
*583 top_u\.cpu\.regfile_u\.loop_gprs\[2\]\.gpr_shifter\.reg_u\.q_all\[4\]
*584 top_u\.cpu\.regfile_u\.loop_gprs\[2\]\.gpr_shifter\.reg_u\.q_all\[5\]
*585 top_u\.cpu\.regfile_u\.loop_gprs\[2\]\.gpr_shifter\.reg_u\.q_all\[6\]
*586 top_u\.cpu\.regfile_u\.loop_gprs\[2\]\.gpr_shifter\.reg_u\.q_all\[7\]
*587 top_u\.cpu\.regfile_u\.loop_gprs\[2\]\.gpr_shifter\.reg_u\.q_all\[8\]
*588 top_u\.cpu\.regfile_u\.loop_gprs\[2\]\.gpr_shifter\.reg_u\.q_all\[9\]
*589 top_u\.cpu\.regfile_u\.loop_gprs\[3\]\.gpr_shifter\.qr
*590 top_u\.cpu\.regfile_u\.loop_gprs\[3\]\.gpr_shifter\.reg_u\.dl
*591 top_u\.cpu\.regfile_u\.loop_gprs\[3\]\.gpr_shifter\.reg_u\.q_all\[10\]
*592 top_u\.cpu\.regfile_u\.loop_gprs\[3\]\.gpr_shifter\.reg_u\.q_all\[11\]
*593 top_u\.cpu\.regfile_u\.loop_gprs\[3\]\.gpr_shifter\.reg_u\.q_all\[12\]
*594 top_u\.cpu\.regfile_u\.loop_gprs\[3\]\.gpr_shifter\.reg_u\.q_all\[13\]
*595 top_u\.cpu\.regfile_u\.loop_gprs\[3\]\.gpr_shifter\.reg_u\.q_all\[14\]
*596 top_u\.cpu\.regfile_u\.loop_gprs\[3\]\.gpr_shifter\.reg_u\.q_all\[15\]
*597 top_u\.cpu\.regfile_u\.loop_gprs\[3\]\.gpr_shifter\.reg_u\.q_all\[1\]
*598 top_u\.cpu\.regfile_u\.loop_gprs\[3\]\.gpr_shifter\.reg_u\.q_all\[2\]
*599 top_u\.cpu\.regfile_u\.loop_gprs\[3\]\.gpr_shifter\.reg_u\.q_all\[3\]
*600 top_u\.cpu\.regfile_u\.loop_gprs\[3\]\.gpr_shifter\.reg_u\.q_all\[4\]
*601 top_u\.cpu\.regfile_u\.loop_gprs\[3\]\.gpr_shifter\.reg_u\.q_all\[5\]
*602 top_u\.cpu\.regfile_u\.loop_gprs\[3\]\.gpr_shifter\.reg_u\.q_all\[6\]
*603 top_u\.cpu\.regfile_u\.loop_gprs\[3\]\.gpr_shifter\.reg_u\.q_all\[7\]
*604 top_u\.cpu\.regfile_u\.loop_gprs\[3\]\.gpr_shifter\.reg_u\.q_all\[8\]
*605 top_u\.cpu\.regfile_u\.loop_gprs\[3\]\.gpr_shifter\.reg_u\.q_all\[9\]
*606 top_u\.cpu\.regfile_u\.loop_gprs\[4\]\.gpr_shifter\.qr
*607 top_u\.cpu\.regfile_u\.loop_gprs\[4\]\.gpr_shifter\.reg_u\.dl
*608 top_u\.cpu\.regfile_u\.loop_gprs\[4\]\.gpr_shifter\.reg_u\.q_all\[10\]
*609 top_u\.cpu\.regfile_u\.loop_gprs\[4\]\.gpr_shifter\.reg_u\.q_all\[11\]
*610 top_u\.cpu\.regfile_u\.loop_gprs\[4\]\.gpr_shifter\.reg_u\.q_all\[12\]
*611 top_u\.cpu\.regfile_u\.loop_gprs\[4\]\.gpr_shifter\.reg_u\.q_all\[13\]
*612 top_u\.cpu\.regfile_u\.loop_gprs\[4\]\.gpr_shifter\.reg_u\.q_all\[14\]
*613 top_u\.cpu\.regfile_u\.loop_gprs\[4\]\.gpr_shifter\.reg_u\.q_all\[15\]
*614 top_u\.cpu\.regfile_u\.loop_gprs\[4\]\.gpr_shifter\.reg_u\.q_all\[1\]
*615 top_u\.cpu\.regfile_u\.loop_gprs\[4\]\.gpr_shifter\.reg_u\.q_all\[2\]
*616 top_u\.cpu\.regfile_u\.loop_gprs\[4\]\.gpr_shifter\.reg_u\.q_all\[3\]
*617 top_u\.cpu\.regfile_u\.loop_gprs\[4\]\.gpr_shifter\.reg_u\.q_all\[4\]
*618 top_u\.cpu\.regfile_u\.loop_gprs\[4\]\.gpr_shifter\.reg_u\.q_all\[5\]
*619 top_u\.cpu\.regfile_u\.loop_gprs\[4\]\.gpr_shifter\.reg_u\.q_all\[6\]
*620 top_u\.cpu\.regfile_u\.loop_gprs\[4\]\.gpr_shifter\.reg_u\.q_all\[7\]
*621 top_u\.cpu\.regfile_u\.loop_gprs\[4\]\.gpr_shifter\.reg_u\.q_all\[8\]
*622 top_u\.cpu\.regfile_u\.loop_gprs\[4\]\.gpr_shifter\.reg_u\.q_all\[9\]
*623 top_u\.cpu\.regfile_u\.loop_gprs\[5\]\.gpr_shifter\.qr
*624 top_u\.cpu\.regfile_u\.loop_gprs\[5\]\.gpr_shifter\.reg_u\.dl
*625 top_u\.cpu\.regfile_u\.loop_gprs\[5\]\.gpr_shifter\.reg_u\.q_all\[10\]
*626 top_u\.cpu\.regfile_u\.loop_gprs\[5\]\.gpr_shifter\.reg_u\.q_all\[11\]
*627 top_u\.cpu\.regfile_u\.loop_gprs\[5\]\.gpr_shifter\.reg_u\.q_all\[12\]
*628 top_u\.cpu\.regfile_u\.loop_gprs\[5\]\.gpr_shifter\.reg_u\.q_all\[13\]
*629 top_u\.cpu\.regfile_u\.loop_gprs\[5\]\.gpr_shifter\.reg_u\.q_all\[14\]
*630 top_u\.cpu\.regfile_u\.loop_gprs\[5\]\.gpr_shifter\.reg_u\.q_all\[15\]
*631 top_u\.cpu\.regfile_u\.loop_gprs\[5\]\.gpr_shifter\.reg_u\.q_all\[1\]
*632 top_u\.cpu\.regfile_u\.loop_gprs\[5\]\.gpr_shifter\.reg_u\.q_all\[2\]
*633 top_u\.cpu\.regfile_u\.loop_gprs\[5\]\.gpr_shifter\.reg_u\.q_all\[3\]
*634 top_u\.cpu\.regfile_u\.loop_gprs\[5\]\.gpr_shifter\.reg_u\.q_all\[4\]
*635 top_u\.cpu\.regfile_u\.loop_gprs\[5\]\.gpr_shifter\.reg_u\.q_all\[5\]
*636 top_u\.cpu\.regfile_u\.loop_gprs\[5\]\.gpr_shifter\.reg_u\.q_all\[6\]
*637 top_u\.cpu\.regfile_u\.loop_gprs\[5\]\.gpr_shifter\.reg_u\.q_all\[7\]
*638 top_u\.cpu\.regfile_u\.loop_gprs\[5\]\.gpr_shifter\.reg_u\.q_all\[8\]
*639 top_u\.cpu\.regfile_u\.loop_gprs\[5\]\.gpr_shifter\.reg_u\.q_all\[9\]
*640 top_u\.cpu\.rst_n
*641 top_u\.cpu\.state\[0\]
*642 top_u\.cpu\.state\[1\]
*643 top_u\.cpu\.state\[2\]
*644 top_u\.io_ioport_latch_i
*645 top_u\.io_ioport_latch_o
*646 top_u\.io_ioport_sck
*647 top_u\.io_ioport_sdo
*648 top_u\.io_mem_csn
*649 top_u\.io_mem_sck
*650 top_u\.io_mem_sdo
*651 top_u\.io_serdes_u\.latch_i_neg
*652 top_u\.io_serdes_u\.latch_i_pos
*653 top_u\.io_serdes_u\.latch_o_neg
*654 top_u\.io_serdes_u\.latch_o_pos
*655 top_u\.io_serdes_u\.sck_en_neg
*656 top_u\.io_serdes_u\.sck_en_pos
*657 top_u\.io_serdes_u\.sdo_neg
*658 top_u\.io_serdes_u\.sdo_pos
*659 top_u\.mem_serdes_u\.csn_neg_r
*660 top_u\.mem_serdes_u\.csn_pos_r
*661 top_u\.mem_serdes_u\.padin_sdi_delay
*662 top_u\.mem_serdes_u\.padin_sdi_delay_int\[0\]
*663 top_u\.mem_serdes_u\.padin_sdi_delay_int\[1\]
*664 top_u\.mem_serdes_u\.padin_sdi_delay_int\[2\]
*665 top_u\.mem_serdes_u\.sck_en_neg_r
*666 top_u\.mem_serdes_u\.sck_en_pos_r
*667 top_u\.mem_serdes_u\.sdi_latch
*668 top_u\.mem_serdes_u\.sdi_negedge
*669 top_u\.mem_serdes_u\.sdo_neg_r
*670 top_u\.mem_serdes_u\.sdo_pos_r
*671 top_u\.reset_sync\[0\]
*672 FILLER_0_108
*673 FILLER_0_113
*674 FILLER_0_124
*675 FILLER_0_136
*676 FILLER_0_149
*677 FILLER_0_15
*678 FILLER_0_161
*679 FILLER_0_167
*680 FILLER_0_177
*681 FILLER_0_189
*682 FILLER_0_195
*683 FILLER_0_213
*684 FILLER_0_221
*685 FILLER_0_233
*686 FILLER_0_245
*687 FILLER_0_251
*688 FILLER_0_253
*689 FILLER_0_265
*690 FILLER_0_27
*691 FILLER_0_277
*692 FILLER_0_281
*693 FILLER_0_29
*694 FILLER_0_293
*695 FILLER_0_3
*696 FILLER_0_40
*697 FILLER_0_52
*698 FILLER_0_60
*699 FILLER_0_80
*700 FILLER_0_85
*701 FILLER_0_91
*702 FILLER_10_108
*703 FILLER_10_128
*704 FILLER_10_135
*705 FILLER_10_139
*706 FILLER_10_157
*707 FILLER_10_165
*708 FILLER_10_183
*709 FILLER_10_191
*710 FILLER_10_195
*711 FILLER_10_204
*712 FILLER_10_21
*713 FILLER_10_226
*714 FILLER_10_246
*715 FILLER_10_261
*716 FILLER_10_27
*717 FILLER_10_273
*718 FILLER_10_285
*719 FILLER_10_297
*720 FILLER_10_3
*721 FILLER_10_32
*722 FILLER_10_41
*723 FILLER_10_52
*724 FILLER_10_62
*725 FILLER_10_69
*726 FILLER_10_73
*727 FILLER_10_80
*728 FILLER_10_85
*729 FILLER_10_92
*730 FILLER_10_96
*731 FILLER_11_108
*732 FILLER_11_113
*733 FILLER_11_127
*734 FILLER_11_15
*735 FILLER_11_152
*736 FILLER_11_163
*737 FILLER_11_167
*738 FILLER_11_169
*739 FILLER_11_177
*740 FILLER_11_197
*741 FILLER_11_210
*742 FILLER_11_217
*743 FILLER_11_223
*744 FILLER_11_228
*745 FILLER_11_234
*746 FILLER_11_251
*747 FILLER_11_27
*748 FILLER_11_271
*749 FILLER_11_279
*750 FILLER_11_281
*751 FILLER_11_293
*752 FILLER_11_3
*753 FILLER_11_31
*754 FILLER_11_38
*755 FILLER_11_44
*756 FILLER_11_52
*757 FILLER_11_64
*758 FILLER_11_77
*759 FILLER_11_84
*760 FILLER_11_96
*761 FILLER_12_104
*762 FILLER_12_117
*763 FILLER_12_131
*764 FILLER_12_139
*765 FILLER_12_141
*766 FILLER_12_155
*767 FILLER_12_169
*768 FILLER_12_183
*769 FILLER_12_190
*770 FILLER_12_21
*771 FILLER_12_213
*772 FILLER_12_233
*773 FILLER_12_245
*774 FILLER_12_251
*775 FILLER_12_269
*776 FILLER_12_27
*777 FILLER_12_281
*778 FILLER_12_29
*779 FILLER_12_293
*780 FILLER_12_3
*781 FILLER_12_46
*782 FILLER_12_52
*783 FILLER_12_61
*784 FILLER_12_73
*785 FILLER_12_80
*786 FILLER_12_91
*787 FILLER_12_95
*788 FILLER_13_100
*789 FILLER_13_108
*790 FILLER_13_120
*791 FILLER_13_124
*792 FILLER_13_132
*793 FILLER_13_140
*794 FILLER_13_146
*795 FILLER_13_150
*796 FILLER_13_154
*797 FILLER_13_164
*798 FILLER_13_169
*799 FILLER_13_173
*800 FILLER_13_184
*801 FILLER_13_196
*802 FILLER_13_207
*803 FILLER_13_21
*804 FILLER_13_211
*805 FILLER_13_220
*806 FILLER_13_231
*807 FILLER_13_251
*808 FILLER_13_263
*809 FILLER_13_275
*810 FILLER_13_279
*811 FILLER_13_281
*812 FILLER_13_293
*813 FILLER_13_3
*814 FILLER_13_41
*815 FILLER_13_52
*816 FILLER_13_60
*817 FILLER_13_71
*818 FILLER_13_81
*819 FILLER_13_91
*820 FILLER_14_100
*821 FILLER_14_107
*822 FILLER_14_115
*823 FILLER_14_123
*824 FILLER_14_133
*825 FILLER_14_139
*826 FILLER_14_148
*827 FILLER_14_152
*828 FILLER_14_156
*829 FILLER_14_168
*830 FILLER_14_189
*831 FILLER_14_195
*832 FILLER_14_21
*833 FILLER_14_213
*834 FILLER_14_219
*835 FILLER_14_228
*836 FILLER_14_248
*837 FILLER_14_261
*838 FILLER_14_27
*839 FILLER_14_273
*840 FILLER_14_285
*841 FILLER_14_297
*842 FILLER_14_3
*843 FILLER_14_45
*844 FILLER_14_59
*845 FILLER_14_72
*846 FILLER_14_80
*847 FILLER_14_91
*848 FILLER_15_103
*849 FILLER_15_111
*850 FILLER_15_116
*851 FILLER_15_123
*852 FILLER_15_136
*853 FILLER_15_151
*854 FILLER_15_160
*855 FILLER_15_172
*856 FILLER_15_176
*857 FILLER_15_187
*858 FILLER_15_19
*859 FILLER_15_195
*860 FILLER_15_213
*861 FILLER_15_220
*862 FILLER_15_233
*863 FILLER_15_253
*864 FILLER_15_265
*865 FILLER_15_277
*866 FILLER_15_281
*867 FILLER_15_293
*868 FILLER_15_39
*869 FILLER_15_52
*870 FILLER_15_60
*871 FILLER_15_7
*872 FILLER_15_71
*873 FILLER_15_81
*874 FILLER_15_90
*875 FILLER_15_98
*876 FILLER_16_100
*877 FILLER_16_106
*878 FILLER_16_113
*879 FILLER_16_124
*880 FILLER_16_136
*881 FILLER_16_141
*882 FILLER_16_151
*883 FILLER_16_162
*884 FILLER_16_166
*885 FILLER_16_173
*886 FILLER_16_187
*887 FILLER_16_195
*888 FILLER_16_197
*889 FILLER_16_208
*890 FILLER_16_21
*891 FILLER_16_223
*892 FILLER_16_243
*893 FILLER_16_251
*894 FILLER_16_253
*895 FILLER_16_265
*896 FILLER_16_27
*897 FILLER_16_277
*898 FILLER_16_289
*899 FILLER_16_29
*900 FILLER_16_297
*901 FILLER_16_3
*902 FILLER_16_33
*903 FILLER_16_46
*904 FILLER_16_53
*905 FILLER_16_64
*906 FILLER_16_77
*907 FILLER_16_83
*908 FILLER_16_88
*909 FILLER_17_105
*910 FILLER_17_111
*911 FILLER_17_113
*912 FILLER_17_120
*913 FILLER_17_132
*914 FILLER_17_145
*915 FILLER_17_15
*916 FILLER_17_157
*917 FILLER_17_164
*918 FILLER_17_169
*919 FILLER_17_182
*920 FILLER_17_190
*921 FILLER_17_200
*922 FILLER_17_21
*923 FILLER_17_220
*924 FILLER_17_241
*925 FILLER_17_25
*926 FILLER_17_253
*927 FILLER_17_265
*928 FILLER_17_277
*929 FILLER_17_281
*930 FILLER_17_293
*931 FILLER_17_3
*932 FILLER_17_37
*933 FILLER_17_50
*934 FILLER_17_57
*935 FILLER_17_72
*936 FILLER_17_85
*937 FILLER_18_10
*938 FILLER_18_117
*939 FILLER_18_121
*940 FILLER_18_125
*941 FILLER_18_136
*942 FILLER_18_14
*943 FILLER_18_150
*944 FILLER_18_163
*945 FILLER_18_167
*946 FILLER_18_184
*947 FILLER_18_192
*948 FILLER_18_197
*949 FILLER_18_201
*950 FILLER_18_21
*951 FILLER_18_218
*952 FILLER_18_238
*953 FILLER_18_250
*954 FILLER_18_261
*955 FILLER_18_27
*956 FILLER_18_273
*957 FILLER_18_285
*958 FILLER_18_29
*959 FILLER_18_297
*960 FILLER_18_44
*961 FILLER_18_57
*962 FILLER_18_6
*963 FILLER_18_61
*964 FILLER_18_66
*965 FILLER_18_79
*966 FILLER_18_83
*967 FILLER_18_91
*968 FILLER_18_99
*969 FILLER_19_108
*970 FILLER_19_122
*971 FILLER_19_13
*972 FILLER_19_137
*973 FILLER_19_151
*974 FILLER_19_162
*975 FILLER_19_17
*976 FILLER_19_185
*977 FILLER_19_192
*978 FILLER_19_21
*979 FILLER_19_214
*980 FILLER_19_222
*981 FILLER_19_225
*982 FILLER_19_233
*983 FILLER_19_252
*984 FILLER_19_264
*985 FILLER_19_276
*986 FILLER_19_28
*987 FILLER_19_281
*988 FILLER_19_293
*989 FILLER_19_50
*990 FILLER_19_6
*991 FILLER_19_67
*992 FILLER_19_80
*993 FILLER_19_84
*994 FILLER_19_88
*995 FILLER_1_108
*996 FILLER_1_113
*997 FILLER_1_117
*998 FILLER_1_137
*999 FILLER_1_143
*1000 FILLER_1_160
*1001 FILLER_1_169
*1002 FILLER_1_18
*1003 FILLER_1_189
*1004 FILLER_1_209
*1005 FILLER_1_221
*1006 FILLER_1_241
*1007 FILLER_1_253
*1008 FILLER_1_265
*1009 FILLER_1_277
*1010 FILLER_1_281
*1011 FILLER_1_293
*1012 FILLER_1_32
*1013 FILLER_1_52
*1014 FILLER_1_57
*1015 FILLER_1_6
*1016 FILLER_1_68
*1017 FILLER_1_88
*1018 FILLER_20_116
*1019 FILLER_20_129
*1020 FILLER_20_136
*1021 FILLER_20_151
*1022 FILLER_20_155
*1023 FILLER_20_165
*1024 FILLER_20_178
*1025 FILLER_20_191
*1026 FILLER_20_195
*1027 FILLER_20_213
*1028 FILLER_20_22
*1029 FILLER_20_225
*1030 FILLER_20_231
*1031 FILLER_20_248
*1032 FILLER_20_261
*1033 FILLER_20_273
*1034 FILLER_20_285
*1035 FILLER_20_29
*1036 FILLER_20_297
*1037 FILLER_20_3
*1038 FILLER_20_47
*1039 FILLER_20_51
*1040 FILLER_20_62
*1041 FILLER_20_77
*1042 FILLER_20_83
*1043 FILLER_20_88
*1044 FILLER_20_92
*1045 FILLER_20_96
*1046 FILLER_21_102
*1047 FILLER_21_106
*1048 FILLER_21_121
*1049 FILLER_21_131
*1050 FILLER_21_135
*1051 FILLER_21_156
*1052 FILLER_21_163
*1053 FILLER_21_167
*1054 FILLER_21_185
*1055 FILLER_21_205
*1056 FILLER_21_209
*1057 FILLER_21_218
*1058 FILLER_21_22
*1059 FILLER_21_225
*1060 FILLER_21_247
*1061 FILLER_21_267
*1062 FILLER_21_279
*1063 FILLER_21_281
*1064 FILLER_21_29
*1065 FILLER_21_293
*1066 FILLER_21_3
*1067 FILLER_21_35
*1068 FILLER_21_39
*1069 FILLER_21_46
*1070 FILLER_21_54
*1071 FILLER_21_57
*1072 FILLER_21_74
*1073 FILLER_21_88
*1074 FILLER_21_92
*1075 FILLER_21_96
*1076 FILLER_22_107
*1077 FILLER_22_120
*1078 FILLER_22_132
*1079 FILLER_22_141
*1080 FILLER_22_149
*1081 FILLER_22_161
*1082 FILLER_22_168
*1083 FILLER_22_180
*1084 FILLER_22_19
*1085 FILLER_22_192
*1086 FILLER_22_197
*1087 FILLER_22_217
*1088 FILLER_22_225
*1089 FILLER_22_244
*1090 FILLER_22_261
*1091 FILLER_22_27
*1092 FILLER_22_273
*1093 FILLER_22_285
*1094 FILLER_22_297
*1095 FILLER_22_3
*1096 FILLER_22_32
*1097 FILLER_22_41
*1098 FILLER_22_53
*1099 FILLER_22_60
*1100 FILLER_22_67
*1101 FILLER_22_80
*1102 FILLER_22_90
*1103 FILLER_23_108
*1104 FILLER_23_116
*1105 FILLER_23_136
*1106 FILLER_23_14
*1107 FILLER_23_140
*1108 FILLER_23_151
*1109 FILLER_23_160
*1110 FILLER_23_172
*1111 FILLER_23_184
*1112 FILLER_23_196
*1113 FILLER_23_216
*1114 FILLER_23_22
*1115 FILLER_23_241
*1116 FILLER_23_253
*1117 FILLER_23_265
*1118 FILLER_23_27
*1119 FILLER_23_277
*1120 FILLER_23_281
*1121 FILLER_23_293
*1122 FILLER_23_3
*1123 FILLER_23_33
*1124 FILLER_23_37
*1125 FILLER_23_44
*1126 FILLER_23_52
*1127 FILLER_23_62
*1128 FILLER_23_7
*1129 FILLER_23_82
*1130 FILLER_23_92
*1131 FILLER_23_99
*1132 FILLER_24_104
*1133 FILLER_24_109
*1134 FILLER_24_118
*1135 FILLER_24_12
*1136 FILLER_24_126
*1137 FILLER_24_136
*1138 FILLER_24_141
*1139 FILLER_24_149
*1140 FILLER_24_16
*1141 FILLER_24_161
*1142 FILLER_24_181
*1143 FILLER_24_193
*1144 FILLER_24_197
*1145 FILLER_24_21
*1146 FILLER_24_214
*1147 FILLER_24_234
*1148 FILLER_24_246
*1149 FILLER_24_261
*1150 FILLER_24_27
*1151 FILLER_24_273
*1152 FILLER_24_285
*1153 FILLER_24_29
*1154 FILLER_24_297
*1155 FILLER_24_3
*1156 FILLER_24_36
*1157 FILLER_24_44
*1158 FILLER_24_65
*1159 FILLER_24_80
*1160 FILLER_24_90
*1161 FILLER_24_98
*1162 FILLER_25_103
*1163 FILLER_25_108
*1164 FILLER_25_120
*1165 FILLER_25_126
*1166 FILLER_25_143
*1167 FILLER_25_163
*1168 FILLER_25_167
*1169 FILLER_25_185
*1170 FILLER_25_205
*1171 FILLER_25_220
*1172 FILLER_25_241
*1173 FILLER_25_253
*1174 FILLER_25_265
*1175 FILLER_25_27
*1176 FILLER_25_277
*1177 FILLER_25_281
*1178 FILLER_25_293
*1179 FILLER_25_3
*1180 FILLER_25_33
*1181 FILLER_25_37
*1182 FILLER_25_52
*1183 FILLER_25_57
*1184 FILLER_25_69
*1185 FILLER_25_78
*1186 FILLER_25_85
*1187 FILLER_25_97
*1188 FILLER_26_100
*1189 FILLER_26_115
*1190 FILLER_26_123
*1191 FILLER_26_136
*1192 FILLER_26_141
*1193 FILLER_26_156
*1194 FILLER_26_176
*1195 FILLER_26_188
*1196 FILLER_26_197
*1197 FILLER_26_215
*1198 FILLER_26_227
*1199 FILLER_26_239
*1200 FILLER_26_24
*1201 FILLER_26_251
*1202 FILLER_26_253
*1203 FILLER_26_265
*1204 FILLER_26_277
*1205 FILLER_26_289
*1206 FILLER_26_297
*1207 FILLER_26_3
*1208 FILLER_26_49
*1209 FILLER_26_59
*1210 FILLER_26_73
*1211 FILLER_26_80
*1212 FILLER_26_85
*1213 FILLER_26_90
*1214 FILLER_27_107
*1215 FILLER_27_111
*1216 FILLER_27_121
*1217 FILLER_27_130
*1218 FILLER_27_150
*1219 FILLER_27_164
*1220 FILLER_27_169
*1221 FILLER_27_177
*1222 FILLER_27_194
*1223 FILLER_27_214
*1224 FILLER_27_222
*1225 FILLER_27_233
*1226 FILLER_27_245
*1227 FILLER_27_257
*1228 FILLER_27_269
*1229 FILLER_27_27
*1230 FILLER_27_277
*1231 FILLER_27_281
*1232 FILLER_27_293
*1233 FILLER_27_3
*1234 FILLER_27_51
*1235 FILLER_27_55
*1236 FILLER_27_67
*1237 FILLER_27_81
*1238 FILLER_28_104
*1239 FILLER_28_114
*1240 FILLER_28_121
*1241 FILLER_28_128
*1242 FILLER_28_132
*1243 FILLER_28_136
*1244 FILLER_28_157
*1245 FILLER_28_169
*1246 FILLER_28_173
*1247 FILLER_28_182
*1248 FILLER_28_194
*1249 FILLER_28_213
*1250 FILLER_28_225
*1251 FILLER_28_237
*1252 FILLER_28_24
*1253 FILLER_28_249
*1254 FILLER_28_253
*1255 FILLER_28_265
*1256 FILLER_28_277
*1257 FILLER_28_289
*1258 FILLER_28_29
*1259 FILLER_28_297
*1260 FILLER_28_3
*1261 FILLER_28_50
*1262 FILLER_28_64
*1263 FILLER_28_74
*1264 FILLER_28_82
*1265 FILLER_28_85
*1266 FILLER_28_92
*1267 FILLER_29_107
*1268 FILLER_29_111
*1269 FILLER_29_113
*1270 FILLER_29_124
*1271 FILLER_29_136
*1272 FILLER_29_164
*1273 FILLER_29_169
*1274 FILLER_29_17
*1275 FILLER_29_181
*1276 FILLER_29_201
*1277 FILLER_29_216
*1278 FILLER_29_225
*1279 FILLER_29_237
*1280 FILLER_29_249
*1281 FILLER_29_261
*1282 FILLER_29_273
*1283 FILLER_29_279
*1284 FILLER_29_281
*1285 FILLER_29_293
*1286 FILLER_29_3
*1287 FILLER_29_31
*1288 FILLER_29_39
*1289 FILLER_29_48
*1290 FILLER_29_57
*1291 FILLER_29_67
*1292 FILLER_29_7
*1293 FILLER_29_71
*1294 FILLER_29_77
*1295 FILLER_29_85
*1296 FILLER_29_93
*1297 FILLER_2_116
*1298 FILLER_2_136
*1299 FILLER_2_141
*1300 FILLER_2_160
*1301 FILLER_2_180
*1302 FILLER_2_192
*1303 FILLER_2_213
*1304 FILLER_2_233
*1305 FILLER_2_24
*1306 FILLER_2_245
*1307 FILLER_2_251
*1308 FILLER_2_261
*1309 FILLER_2_273
*1310 FILLER_2_285
*1311 FILLER_2_29
*1312 FILLER_2_297
*1313 FILLER_2_3
*1314 FILLER_2_40
*1315 FILLER_2_60
*1316 FILLER_2_80
*1317 FILLER_2_85
*1318 FILLER_2_9
*1319 FILLER_2_96
*1320 FILLER_30_104
*1321 FILLER_30_118
*1322 FILLER_30_125
*1323 FILLER_30_132
*1324 FILLER_30_141
*1325 FILLER_30_165
*1326 FILLER_30_185
*1327 FILLER_30_193
*1328 FILLER_30_213
*1329 FILLER_30_225
*1330 FILLER_30_237
*1331 FILLER_30_24
*1332 FILLER_30_249
*1333 FILLER_30_253
*1334 FILLER_30_265
*1335 FILLER_30_277
*1336 FILLER_30_289
*1337 FILLER_30_29
*1338 FILLER_30_297
*1339 FILLER_30_3
*1340 FILLER_30_53
*1341 FILLER_30_59
*1342 FILLER_30_67
*1343 FILLER_30_79
*1344 FILLER_30_83
*1345 FILLER_30_85
*1346 FILLER_30_95
*1347 FILLER_31_108
*1348 FILLER_31_113
*1349 FILLER_31_117
*1350 FILLER_31_12
*1351 FILLER_31_134
*1352 FILLER_31_142
*1353 FILLER_31_152
*1354 FILLER_31_164
*1355 FILLER_31_185
*1356 FILLER_31_205
*1357 FILLER_31_217
*1358 FILLER_31_223
*1359 FILLER_31_225
*1360 FILLER_31_237
*1361 FILLER_31_249
*1362 FILLER_31_261
*1363 FILLER_31_273
*1364 FILLER_31_279
*1365 FILLER_31_281
*1366 FILLER_31_293
*1367 FILLER_31_3