*SPEF "ieee 1481-1999"
*DESIGN "xor_shift32_evango"
*DATE "11:11:11 Fri 11 11, 1111"
*VENDOR "OpenRCX"
*PROGRAM "Parallel Extraction"
*VERSION "1.0"
*DESIGN_FLOW "NAME_SCOPE LOCAL" "PIN_CAP NONE"
*DIVIDER /
*DELIMITER :
*BUS_DELIMITER []
*T_UNIT 1 NS
*C_UNIT 1 PF
*R_UNIT 1 OHM
*L_UNIT 1 HENRY

*NAME_MAP
*1 io_in[0]
*2 io_in[1]
*3 io_in[2]
*4 io_in[3]
*5 io_in[4]
*6 io_in[5]
*7 io_in[6]
*8 io_in[7]
*9 io_out[0]
*10 io_out[1]
*11 io_out[2]
*12 io_out[3]
*13 io_out[4]
*14 io_out[5]
*15 io_out[6]
*16 net8
*19 _000_
*20 _001_
*21 _002_
*22 _003_
*23 _004_
*24 _005_
*25 _006_
*26 _007_
*27 _008_
*28 _009_
*29 _010_
*30 _011_
*31 _012_
*32 _013_
*33 _014_
*34 _015_
*35 _016_
*36 _017_
*37 _018_
*38 _019_
*39 _020_
*40 _021_
*41 _022_
*42 _023_
*43 _024_
*44 _025_
*45 _026_
*46 _027_
*47 _028_
*48 _029_
*49 _030_
*50 _031_
*51 _032_
*52 _033_
*53 _034_
*54 _035_
*55 _036_
*56 _037_
*57 _038_
*58 _039_
*59 _040_
*60 _041_
*61 _042_
*62 _043_
*63 _044_
*64 _045_
*65 _046_
*66 _047_
*67 _048_
*68 _049_
*69 _050_
*70 _051_
*71 _052_
*72 _053_
*73 _054_
*74 _055_
*75 _056_
*76 _057_
*77 _058_
*78 _059_
*79 _060_
*80 _061_
*81 _062_
*82 _063_
*83 _064_
*84 _065_
*85 _066_
*86 _067_
*87 _068_
*88 _069_
*89 _070_
*90 _071_
*91 _072_
*92 _073_
*93 _074_
*94 _075_
*95 _076_
*96 _077_
*97 _078_
*98 _079_
*99 _080_
*100 _081_
*101 _082_
*102 _083_
*103 _084_
*104 _085_
*105 _086_
*106 _087_
*107 _088_
*108 _089_
*109 _090_
*110 _091_
*111 _092_
*112 _093_
*113 _094_
*114 _095_
*115 _096_
*116 _097_
*117 _098_
*118 _099_
*119 _100_
*120 _101_
*121 _102_
*122 _103_
*123 _104_
*124 _105_
*125 _106_
*126 _107_
*127 _108_
*128 _109_
*129 _110_
*130 _111_
*131 _112_
*132 _113_
*133 _114_
*134 _115_
*135 _116_
*136 _117_
*137 _118_
*138 _119_
*139 _120_
*140 _121_
*141 _122_
*142 _123_
*143 _124_
*144 _125_
*145 _126_
*146 _127_
*147 _128_
*148 _129_
*149 _130_
*150 _131_
*151 _132_
*152 _133_
*153 _134_
*154 _135_
*155 _136_
*156 _137_
*157 _138_
*158 _139_
*159 _140_
*160 _141_
*161 _142_
*162 _143_
*163 _144_
*164 _145_
*165 _146_
*166 _147_
*167 _148_
*168 _149_
*169 _150_
*170 _151_
*171 _152_
*172 _153_
*173 _154_
*174 _155_
*175 _156_
*176 _157_
*177 _158_
*178 _159_
*179 _160_
*180 _161_
*181 _162_
*182 _163_
*183 _164_
*184 _165_
*185 _166_
*186 _167_
*187 _168_
*188 _169_
*189 _170_
*190 _171_
*191 _172_
*192 _173_
*193 _174_
*194 _175_
*195 _176_
*196 _177_
*197 _178_
*198 _179_
*199 _180_
*200 _181_
*201 _182_
*202 _183_
*203 _184_
*204 _185_
*205 _186_
*206 _187_
*207 _188_
*208 _189_
*209 _190_
*210 _191_
*211 _192_
*212 _193_
*213 _194_
*214 _195_
*215 _196_
*216 _197_
*217 _198_
*218 _199_
*219 _200_
*220 _201_
*221 _202_
*222 _203_
*223 _204_
*224 _205_
*225 _206_
*226 _207_
*227 _208_
*228 _209_
*229 clknet_0_io_in[0]
*230 clknet_2_0__leaf_io_in[0]
*231 clknet_2_1__leaf_io_in[0]
*232 clknet_2_2__leaf_io_in[0]
*233 clknet_2_3__leaf_io_in[0]
*234 inital_state\[0\]
*235 inital_state\[10\]
*236 inital_state\[11\]
*237 inital_state\[12\]
*238 inital_state\[13\]
*239 inital_state\[14\]
*240 inital_state\[15\]
*241 inital_state\[16\]
*242 inital_state\[17\]
*243 inital_state\[18\]
*244 inital_state\[19\]
*245 inital_state\[1\]
*246 inital_state\[20\]
*247 inital_state\[21\]
*248 inital_state\[22\]
*249 inital_state\[23\]
*250 inital_state\[24\]
*251 inital_state\[25\]
*252 inital_state\[26\]
*253 inital_state\[27\]
*254 inital_state\[28\]
*255 inital_state\[29\]
*256 inital_state\[2\]
*257 inital_state\[30\]
*258 inital_state\[31\]
*259 inital_state\[3\]
*260 inital_state\[4\]
*261 inital_state\[5\]
*262 inital_state\[6\]
*263 inital_state\[7\]
*264 inital_state\[8\]
*265 inital_state\[9\]
*266 net1
*267 net2
*268 net3
*269 net4
*270 net5
*271 net6
*272 net7
*273 second_counter\[0\]
*274 second_counter\[1\]
*275 second_counter\[2\]
*276 second_counter\[3\]
*277 second_counter\[4\]
*278 second_counter\[5\]
*279 second_counter\[6\]
*280 second_counter\[7\]
*281 second_counter\[8\]
*282 second_counter\[9\]
*283 seg7\.counter\[0\]
*284 seg7\.counter\[1\]
*285 seg7\.counter\[2\]
*286 ANTENNA_0
*287 ANTENNA_1
*288 FILLER_0_109
*289 FILLER_0_113
*290 FILLER_0_117
*291 FILLER_0_123
*292 FILLER_0_130
*293 FILLER_0_138
*294 FILLER_0_141
*295 FILLER_0_153
*296 FILLER_0_165
*297 FILLER_0_169
*298 FILLER_0_181
*299 FILLER_0_193
*300 FILLER_0_197
*301 FILLER_0_209
*302 FILLER_0_221
*303 FILLER_0_225
*304 FILLER_0_237
*305 FILLER_0_24
*306 FILLER_0_249
*307 FILLER_0_253
*308 FILLER_0_265
*309 FILLER_0_277
*310 FILLER_0_281
*311 FILLER_0_29
*312 FILLER_0_293
*313 FILLER_0_3
*314 FILLER_0_35
*315 FILLER_0_52
*316 FILLER_0_7
*317 FILLER_0_73
*318 FILLER_0_81
*319 FILLER_0_85
*320 FILLER_0_97
*321 FILLER_10_101
*322 FILLER_10_109
*323 FILLER_10_118
*324 FILLER_10_130
*325 FILLER_10_138
*326 FILLER_10_163
*327 FILLER_10_184
*328 FILLER_10_197
*329 FILLER_10_209
*330 FILLER_10_221
*331 FILLER_10_233
*332 FILLER_10_24
*333 FILLER_10_245
*334 FILLER_10_251
*335 FILLER_10_253
*336 FILLER_10_265
*337 FILLER_10_277
*338 FILLER_10_289
*339 FILLER_10_297
*340 FILLER_10_3
*341 FILLER_10_32
*342 FILLER_10_36
*343 FILLER_10_53
*344 FILLER_10_73
*345 FILLER_10_80
*346 FILLER_11_108
*347 FILLER_11_113
*348 FILLER_11_117
*349 FILLER_11_126
*350 FILLER_11_132
*351 FILLER_11_141
*352 FILLER_11_147
*353 FILLER_11_154
*354 FILLER_11_166
*355 FILLER_11_174
*356 FILLER_11_186
*357 FILLER_11_198
*358 FILLER_11_210
*359 FILLER_11_222
*360 FILLER_11_225
*361 FILLER_11_237
*362 FILLER_11_249
*363 FILLER_11_25
*364 FILLER_11_261
*365 FILLER_11_273
*366 FILLER_11_279
*367 FILLER_11_281
*368 FILLER_11_293
*369 FILLER_11_3
*370 FILLER_11_46
*371 FILLER_11_54
*372 FILLER_11_57
*373 FILLER_11_7
*374 FILLER_11_82
*375 FILLER_11_94
*376 FILLER_12_104
*377 FILLER_12_113
*378 FILLER_12_121
*379 FILLER_12_125
*380 FILLER_12_134
*381 FILLER_12_149
*382 FILLER_12_160
*383 FILLER_12_172
*384 FILLER_12_184
*385 FILLER_12_203
*386 FILLER_12_215
*387 FILLER_12_227
*388 FILLER_12_239
*389 FILLER_12_24
*390 FILLER_12_251
*391 FILLER_12_253
*392 FILLER_12_265
*393 FILLER_12_277
*394 FILLER_12_289
*395 FILLER_12_29
*396 FILLER_12_297
*397 FILLER_12_3
*398 FILLER_12_41
*399 FILLER_12_65
*400 FILLER_12_73
*401 FILLER_12_80
*402 FILLER_12_85
*403 FILLER_12_94
*404 FILLER_13_101
*405 FILLER_13_108
*406 FILLER_13_113
*407 FILLER_13_124
*408 FILLER_13_131
*409 FILLER_13_139
*410 FILLER_13_146
*411 FILLER_13_152
*412 FILLER_13_156
*413 FILLER_13_176
*414 FILLER_13_188
*415 FILLER_13_20
*416 FILLER_13_200
*417 FILLER_13_212
*418 FILLER_13_225
*419 FILLER_13_237
*420 FILLER_13_249
*421 FILLER_13_261
*422 FILLER_13_273
*423 FILLER_13_279
*424 FILLER_13_281
*425 FILLER_13_293
*426 FILLER_13_40
*427 FILLER_13_52
*428 FILLER_13_74
*429 FILLER_13_95
*430 FILLER_14_101
*431 FILLER_14_113
*432 FILLER_14_126
*433 FILLER_14_133
*434 FILLER_14_139
*435 FILLER_14_151
*436 FILLER_14_172
*437 FILLER_14_184
*438 FILLER_14_204
*439 FILLER_14_216
*440 FILLER_14_228
*441 FILLER_14_23
*442 FILLER_14_240
*443 FILLER_14_253
*444 FILLER_14_265
*445 FILLER_14_27
*446 FILLER_14_277
*447 FILLER_14_289
*448 FILLER_14_29
*449 FILLER_14_297
*450 FILLER_14_3
*451 FILLER_14_47
*452 FILLER_14_53
*453 FILLER_14_70
*454 FILLER_14_82
*455 FILLER_14_85
*456 FILLER_14_93
*457 FILLER_15_100
*458 FILLER_15_108
*459 FILLER_15_113
*460 FILLER_15_126
*461 FILLER_15_142
*462 FILLER_15_158
*463 FILLER_15_166
*464 FILLER_15_169
*465 FILLER_15_175
*466 FILLER_15_185
*467 FILLER_15_19
*468 FILLER_15_197
*469 FILLER_15_209
*470 FILLER_15_221
*471 FILLER_15_225
*472 FILLER_15_237
*473 FILLER_15_249
*474 FILLER_15_261
*475 FILLER_15_273
*476 FILLER_15_279
*477 FILLER_15_281
*478 FILLER_15_293
*479 FILLER_15_31
*480 FILLER_15_52
*481 FILLER_15_74
*482 FILLER_15_82
*483 FILLER_15_91
*484 FILLER_16_107
*485 FILLER_16_119
*486 FILLER_16_127
*487 FILLER_16_134
*488 FILLER_16_148
*489 FILLER_16_156
*490 FILLER_16_164
*491 FILLER_16_176
*492 FILLER_16_188
*493 FILLER_16_19
*494 FILLER_16_197
*495 FILLER_16_209
*496 FILLER_16_221
*497 FILLER_16_233
*498 FILLER_16_245
*499 FILLER_16_251
*500 FILLER_16_253
*501 FILLER_16_265
*502 FILLER_16_27
*503 FILLER_16_277
*504 FILLER_16_289
*505 FILLER_16_29
*506 FILLER_16_297
*507 FILLER_16_41
*508 FILLER_16_53
*509 FILLER_16_74
*510 FILLER_16_82
*511 FILLER_17_104
*512 FILLER_17_116
*513 FILLER_17_129
*514 FILLER_17_141
*515 FILLER_17_151
*516 FILLER_17_163
*517 FILLER_17_167
*518 FILLER_17_169
*519 FILLER_17_177
*520 FILLER_17_18
*521 FILLER_17_186
*522 FILLER_17_198
*523 FILLER_17_210
*524 FILLER_17_222
*525 FILLER_17_225
*526 FILLER_17_23
*527 FILLER_17_237
*528 FILLER_17_249
*529 FILLER_17_261
*530 FILLER_17_273
*531 FILLER_17_279
*532 FILLER_17_281
*533 FILLER_17_293
*534 FILLER_17_35
*535 FILLER_17_47
*536 FILLER_17_55
*537 FILLER_17_6
*538 FILLER_17_73
*539 FILLER_17_81
*540 FILLER_17_88
*541 FILLER_17_92
*542 FILLER_17_97
*543 FILLER_18_103
*544 FILLER_18_118
*545 FILLER_18_126
*546 FILLER_18_133
*547 FILLER_18_139
*548 FILLER_18_141
*549 FILLER_18_149
*550 FILLER_18_160
*551 FILLER_18_172
*552 FILLER_18_184
*553 FILLER_18_197
*554 FILLER_18_209
*555 FILLER_18_22
*556 FILLER_18_221
*557 FILLER_18_233
*558 FILLER_18_245
*559 FILLER_18_251
*560 FILLER_18_253
*561 FILLER_18_265
*562 FILLER_18_277
*563 FILLER_18_289
*564 FILLER_18_297
*565 FILLER_18_3
*566 FILLER_18_33
*567 FILLER_18_41
*568 FILLER_18_49
*569 FILLER_18_60
*570 FILLER_18_72
*571 FILLER_18_80
*572 FILLER_18_9
*573 FILLER_18_93
*574 FILLER_19_102
*575 FILLER_19_110
*576 FILLER_19_120
*577 FILLER_19_129
*578 FILLER_19_133
*579 FILLER_19_141
*580 FILLER_19_153
*581 FILLER_19_164
*582 FILLER_19_17
*583 FILLER_19_176
*584 FILLER_19_188
*585 FILLER_19_200
*586 FILLER_19_212
*587 FILLER_19_225
*588 FILLER_19_237
*589 FILLER_19_24
*590 FILLER_19_249
*591 FILLER_19_261
*592 FILLER_19_273
*593 FILLER_19_279
*594 FILLER_19_281
*595 FILLER_19_293
*596 FILLER_19_30
*597 FILLER_19_35
*598 FILLER_19_47
*599 FILLER_19_55
*600 FILLER_19_57
*601 FILLER_19_70
*602 FILLER_19_80
*603 FILLER_19_88
*604 FILLER_19_9
*605 FILLER_1_105
*606 FILLER_1_111
*607 FILLER_1_113
*608 FILLER_1_117
*609 FILLER_1_125
*610 FILLER_1_134
*611 FILLER_1_146
*612 FILLER_1_160
*613 FILLER_1_169
*614 FILLER_1_181
*615 FILLER_1_193
*616 FILLER_1_205
*617 FILLER_1_217
*618 FILLER_1_223
*619 FILLER_1_225
*620 FILLER_1_237
*621 FILLER_1_249
*622 FILLER_1_25
*623 FILLER_1_261
*624 FILLER_1_273
*625 FILLER_1_279
*626 FILLER_1_281
*627 FILLER_1_293
*628 FILLER_1_3
*629 FILLER_1_46
*630 FILLER_1_54
*631 FILLER_1_7
*632 FILLER_1_74
*633 FILLER_1_86
*634 FILLER_1_90
*635 FILLER_1_98
*636 FILLER_20_102
*637 FILLER_20_136
*638 FILLER_20_148
*639 FILLER_20_160
*640 FILLER_20_172
*641 FILLER_20_18
*642 FILLER_20_180
*643 FILLER_20_192
*644 FILLER_20_197
*645 FILLER_20_209
*646 FILLER_20_221
*647 FILLER_20_233
*648 FILLER_20_245
*649 FILLER_20_251
*650 FILLER_20_253
*651 FILLER_20_26
*652 FILLER_20_265
*653 FILLER_20_277
*654 FILLER_20_289
*655 FILLER_20_29
*656 FILLER_20_297
*657 FILLER_20_44
*658 FILLER_20_58
*659 FILLER_20_6
*660 FILLER_20_69
*661 FILLER_20_77
*662 FILLER_20_83
*663 FILLER_20_89
*664 FILLER_21_108
*665 FILLER_21_119
*666 FILLER_21_12
*667 FILLER_21_131
*668 FILLER_21_143
*669 FILLER_21_155
*670 FILLER_21_167
*671 FILLER_21_174
*672 FILLER_21_186
*673 FILLER_21_19
*674 FILLER_21_198
*675 FILLER_21_210
*676 FILLER_21_222
*677 FILLER_21_225
*678 FILLER_21_237
*679 FILLER_21_249
*680 FILLER_21_261
*681 FILLER_21_273
*682 FILLER_21_279
*683 FILLER_21_281
*684 FILLER_21_293
*685 FILLER_21_3
*686 FILLER_21_31
*687 FILLER_21_44
*688 FILLER_21_57
*689 FILLER_21_68
*690 FILLER_21_8
*691 FILLER_21_80
*692 FILLER_21_84
*693 FILLER_21_89
*694 FILLER_21_96
*695 FILLER_22_102
*696 FILLER_22_114
*697 FILLER_22_126
*698 FILLER_22_132
*699 FILLER_22_141
*700 FILLER_22_153
*701 FILLER_22_165
*702 FILLER_22_177
*703 FILLER_22_189
*704 FILLER_22_195
*705 FILLER_22_197
*706 FILLER_22_209
*707 FILLER_22_221
*708 FILLER_22_233
*709 FILLER_22_24
*710 FILLER_22_245
*711 FILLER_22_251
*712 FILLER_22_253
*713 FILLER_22_265
*714 FILLER_22_277
*715 FILLER_22_289
*716 FILLER_22_297
*717 FILLER_22_3
*718 FILLER_22_38
*719 FILLER_22_54
*720 FILLER_22_64
*721 FILLER_22_79
*722 FILLER_22_83
*723 FILLER_22_85
*724 FILLER_22_97
*725 FILLER_23_108
*726 FILLER_23_135
*727 FILLER_23_147
*728 FILLER_23_159
*729 FILLER_23_167
*730 FILLER_23_176
*731 FILLER_23_18
*732 FILLER_23_182
*733 FILLER_23_196
*734 FILLER_23_208
*735 FILLER_23_220
*736 FILLER_23_225
*737 FILLER_23_237
*738 FILLER_23_249
*739 FILLER_23_261
*740 FILLER_23_273
*741 FILLER_23_279
*742 FILLER_23_281
*743 FILLER_23_293
*744 FILLER_23_30
*745 FILLER_23_34
*746 FILLER_23_46
*747 FILLER_23_54
*748 FILLER_23_6
*749 FILLER_23_61
*750 FILLER_23_73
*751 FILLER_23_85
*752 FILLER_23_98
*753 FILLER_24_105
*754 FILLER_24_113
*755 FILLER_24_122
*756 FILLER_24_134
*757 FILLER_24_141
*758 FILLER_24_154
*759 FILLER_24_166
*760 FILLER_24_178
*761 FILLER_24_190
*762 FILLER_24_197
*763 FILLER_24_209
*764 FILLER_24_21
*765 FILLER_24_221
*766 FILLER_24_233
*767 FILLER_24_245
*768 FILLER_24_251
*769 FILLER_24_253
*770 FILLER_24_265
*771 FILLER_24_27
*772 FILLER_24_277
*773 FILLER_24_289
*774 FILLER_24_297
*775 FILLER_24_3
*776 FILLER_24_32
*777 FILLER_24_44
*778 FILLER_24_49
*779 FILLER_24_57
*780 FILLER_24_64
*781 FILLER_24_7
*782 FILLER_24_76
*783 FILLER_24_94
*784 FILLER_25_104
*785 FILLER_25_113
*786 FILLER_25_125
*787 FILLER_25_133
*788 FILLER_25_145
*789 FILLER_25_15
*790 FILLER_25_157
*791 FILLER_25_165
*792 FILLER_25_169
*793 FILLER_25_181
*794 FILLER_25_193
*795 FILLER_25_205
*796 FILLER_25_217
*797 FILLER_25_223
*798 FILLER_25_225
*799 FILLER_25_237
*800 FILLER_25_249
*801 FILLER_25_261
*802 FILLER_25_273
*803 FILLER_25_279
*804 FILLER_25_281
*805 FILLER_25_293
*806 FILLER_25_3
*807 FILLER_25_30
*808 FILLER_25_42
*809 FILLER_25_48
*810 FILLER_25_52
*811 FILLER_25_66
*812 FILLER_25_76
*813 FILLER_25_82
*814 FILLER_25_92
*815 FILLER_26_113
*816 FILLER_26_117
*817 FILLER_26_125
*818 FILLER_26_137
*819 FILLER_26_141
*820 FILLER_26_153
*821 FILLER_26_165
*822 FILLER_26_177
*823 FILLER_26_189
*824 FILLER_26_195
*825 FILLER_26_197
*826 FILLER_26_209
*827 FILLER_26_21
*828 FILLER_26_221
*829 FILLER_26_233
*830 FILLER_26_245
*831 FILLER_26_251
*832 FILLER_26_253
*833 FILLER_26_265
*834 FILLER_26_27
*835 FILLER_26_277
*836 FILLER_26_289
*837 FILLER_26_29
*838 FILLER_26_297
*839 FILLER_26_3
*840 FILLER_26_41
*841 FILLER_26_53
*842 FILLER_26_65
*843 FILLER_26_77
*844 FILLER_26_83
*845 FILLER_26_85
*846 FILLER_26_9
*847 FILLER_26_97
*848 FILLER_27_100
*849 FILLER_27_113
*850 FILLER_27_117
*851 FILLER_27_127
*852 FILLER_27_152
*853 FILLER_27_164
*854 FILLER_27_169
*855 FILLER_27_18
*856 FILLER_27_181
*857 FILLER_27_193
*858 FILLER_27_205
*859 FILLER_27_217
*860 FILLER_27_223
*861 FILLER_27_225
*862 FILLER_27_237
*863 FILLER_27_249
*864 FILLER_27_261
*865 FILLER_27_273
*866 FILLER_27_279
*867 FILLER_27_281
*868 FILLER_27_293
*869 FILLER_27_30
*870 FILLER_27_42
*871 FILLER_27_54
*872 FILLER_27_57
*873 FILLER_27_6
*874 FILLER_27_63
*875 FILLER_27_70
*876 FILLER_27_83
*877 FILLER_28_103
*878 FILLER_28_115
*879 FILLER_28_127
*880 FILLER_28_139
*881 FILLER_28_141
*882 FILLER_28_153
*883 FILLER_28_165
*884 FILLER_28_17
*885 FILLER_28_177
*886 FILLER_28_189
*887 FILLER_28_195
*888 FILLER_28_197
*889 FILLER_28_209
*890 FILLER_28_221
*891 FILLER_28_233
*892 FILLER_28_245
*893 FILLER_28_25
*894 FILLER_28_251
*895 FILLER_28_253
*896 FILLER_28_265
*897 FILLER_28_277
*898 FILLER_28_289
*899 FILLER_28_29
*900 FILLER_28_297
*901 FILLER_28_3
*902 FILLER_28_41
*903 FILLER_28_53
*904 FILLER_28_72
*905 FILLER_28_85
*906 FILLER_28_93
*907 FILLER_29_102
*908 FILLER_29_110
*909 FILLER_29_120
*910 FILLER_29_132
*911 FILLER_29_144
*912 FILLER_29_15
*913 FILLER_29_156
*914 FILLER_29_169
*915 FILLER_29_181
*916 FILLER_29_193
*917 FILLER_29_205
*918 FILLER_29_217
*919 FILLER_29_223
*920 FILLER_29_225
*921 FILLER_29_237
*922 FILLER_29_249
*923 FILLER_29_261
*924 FILLER_29_27
*925 FILLER_29_273
*926 FILLER_29_279
*927 FILLER_29_281
*928 FILLER_29_293
*929 FILLER_29_3
*930 FILLER_29_39
*931 FILLER_29_44
*932 FILLER_29_57
*933 FILLER_29_69
*934 FILLER_29_85
*935 FILLER_2_109
*936 FILLER_2_113
*937 FILLER_2_119
*938 FILLER_2_127
*939 FILLER_2_139
*940 FILLER_2_141
*941 FILLER_2_153
*942 FILLER_2_157
*943 FILLER_2_171
*944 FILLER_2_183
*945 FILLER_2_195
*946 FILLER_2_197
*947 FILLER_2_20
*948 FILLER_2_209
*949 FILLER_2_221
*950 FILLER_2_233
*951 FILLER_2_24
*952 FILLER_2_245
*953 FILLER_2_251
*954 FILLER_2_253
*955 FILLER_2_265
*956 FILLER_2_277
*957 FILLER_2_289
*958 FILLER_2_297
*959 FILLER_2_39
*960 FILLER_2_65
*961 FILLER_2_77
*962 FILLER_2_83
*963 FILLER_2_85
*964 FILLER_2_91
*965 FILLER_30_109
*966 FILLER_30_121
*967 FILLER_30_127
*968 FILLER_30_131
*969 FILLER_30_139
*970 FILLER_30_141
*971 FILLER_30_15
*972 FILLER_30_153
*973 FILLER_30_165
*974 FILLER_30_177
*975 FILLER_30_189
*976 FILLER_30_195
*977 FILLER_30_197
*978 FILLER_30_209
*979 FILLER_30_221
*980 FILLER_30_233
*981 FILLER_30_245
*982 FILLER_30_251
*983 FILLER_30_253
*984 FILLER_30_265
*985 FILLER_30_27
*986 FILLER_30_277
*987 FILLER_30_289
*988 FILLER_30_29
*989 FILLER_30_297
*990 FILLER_30_3
*991 FILLER_30_41
*992 FILLER_30_47
*993 FILLER_30_61
*994 FILLER_30_71
*995 FILLER_30_83
*996 FILLER_30_85
*997 FILLER_30_97
*998 FILLER_31_10
*999 FILLER_31_105
*1000 FILLER_31_111
*1001 FILLER_31_113
*1002 FILLER_31_125
*1003 FILLER_31_137
*1004 FILLER_31_149
*1005 FILLER_31_161
*1006 FILLER_31_167
*1007 FILLER_31_169
*1008 FILLER_31_181
*1009 FILLER_31_193
*1010 FILLER_31_205
*1011 FILLER_31_217
*1012 FILLER_31_22
*1013 FILLER_31_223
*1014 FILLER_31_225
*1015 FILLER_31_237
*1016 FILLER_31_249
*1017 FILLER_31_261
*1018 FILLER_31_273
*1019 FILLER_31_279
*1020 FILLER_31_281
*1021 FILLER_31_293
*1022 FILLER_31_3
*1023 FILLER_31_34
*1024 FILLER_31_46
*1025 FILLER_31_54
*1026 FILLER_31_57
*1027 FILLER_31_69
*1028 FILLER_31_93
*1029 FILLER_32_112
*1030 FILLER_32_124
*1031 FILLER_32_136
*1032 FILLER_32_141
*1033 FILLER_32_15
*1034 FILLER_32_153
*1035 FILLER_32_165
*1036 FILLER_32_177
*1037 FILLER_32_189
*1038 FILLER_32_195
*1039 FILLER_32_197
*1040 FILLER_32_209
*1041 FILLER_32_221
*1042 FILLER_32_233
*1043 FILLER_32_245
*1044 FILLER_32_251
*1045 FILLER_32_253
*1046 FILLER_32_265
*1047 FILLER_32_27
*1048 FILLER_32_277
*1049 FILLER_32_289
*1050 FILLER_32_29
*1051 FILLER_32_297
*1052 FILLER_32_3
*1053 FILLER_32_41
*1054 FILLER_32_56
*1055 FILLER_32_68
*1056 FILLER_32_80
*1057 FILLER_32_85
*1058 FILLER_32_97
*1059 FILLER_33_10
*1060 FILLER_33_105
*1061 FILLER_33_111
*1062 FILLER_33_113
*1063 FILLER_33_125
*1064 FILLER_33_137
*1065 FILLER_33_149
*1066 FILLER_33_161
*1067 FILLER_33_167
*1068 FILLER_33_169
*1069 FILLER_33_181
*1070 FILLER_33_193
*1071 FILLER_33_205
*1072 FILLER_33_21
*1073 FILLER_33_217
*1074 FILLER_33_223
*1075 FILLER_33_225
*1076 FILLER_33_237
*1077 FILLER_33_249
*1078 FILLER_33_261
*1079 FILLER_33_273
*1080 FILLER_33_279
*1081 FILLER_33_281
*1082 FILLER_33_293
*1083 FILLER_33_3
*1084 FILLER_33_33
*1085 FILLER_33_45
*1086 FILLER_33_53
*1087 FILLER_33_57
*1088 FILLER_33_69
*1089 FILLER_33_81
*1090 FILLER_33_93
*1091 FILLER_34_109
*1092 FILLER_34_121
*1093 FILLER_34_133
*1094 FILLER_34_139
*1095 FILLER_34_141
*1096 FILLER_34_153
*1097 FILLER_34_165
*1098 FILLER_34_177
*1099 FILLER_34_189
*1100 FILLER_34_195
*1101 FILLER_34_197
*1102 FILLER_34_209
*1103 FILLER_34_21
*1104 FILLER_34_221
*1105 FILLER_34_233
*1106 FILLER_34_245
*1107 FILLER_34_251
*1108 FILLER_34_253
*1109 FILLER_34_265
*1110 FILLER_34_27
*1111 FILLER_34_277
*1112 FILLER_34_289
*1113 FILLER_34_29
*1114 FILLER_34_297
*1115 FILLER_34_41
*1116 FILLER_34_53
*1117 FILLER_34_65
*1118 FILLER_34_77
*1119 FILLER_34_83
*1120 FILLER_34_85
*1121 FILLER_34_9
*1122 FILLER_34_97
*1123 FILLER_35_105
*1124 FILLER_35_111
*1125 FILLER_35_113
*1126 FILLER_35_125
*1127 FILLER_35_137
*1128 FILLER_35_149
*1129 FILLER_35_15
*1130 FILLER_35_161
*1131 FILLER_35_167
*1132 FILLER_35_169
*1133 FILLER_35_181
*1134 FILLER_35_193
*1135 FILLER_35_205
*1136 FILLER_35_217
*1137 FILLER_35_223
*1138 FILLER_35_225
*1139 FILLER_35_237
*1140 FILLER_35_249
*1141 FILLER_35_261
*1142 FILLER_35_27
*1143 FILLER_35_273
*1144 FILLER_35_279
*1145 FILLER_35_281
*1146 FILLER_35_293
*1147 FILLER_35_3
*1148 FILLER_35_39
*1149 FILLER_35_51
*1150 FILLER_35_55
*1151 FILLER_35_57
*1152 FILLER_35_69
*1153 FILLER_35_81
*1154 FILLER_35_93
*1155 FILLER_36_109
*1156 FILLER_36_121
*1157 FILLER_36_133
*1158 FILLER_36_139
*1159 FILLER_36_141
*1160 FILLER_36_15
*1161 FILLER_36_153
*1162 FILLER_36_165
*1163 FILLER_36_177
*1164 FILLER_36_189
*1165 FILLER_36_195
*1166 FILLER_36_197
*1167 FILLER_36_209
*1168 FILLER_36_221
*1169 FILLER_36_233
*1170 FILLER_36_245
*1171 FILLER_36_251
*1172 FILLER_36_253
*1173 FILLER_36_265
*1174 FILLER_36_27
*1175 FILLER_36_277
*1176 FILLER_36_289
*1177 FILLER_36_29
*1178 FILLER_36_297
*1179 FILLER_36_3
*1180 FILLER_36_41
*1181 FILLER_36_49
*1182 FILLER_36_61
*1183 FILLER_36_73
*1184 FILLER_36_81
*1185 FILLER_36_85
*1186 FILLER_36_97
*1187 FILLER_37_105
*1188 FILLER_37_111
*1189 FILLER_37_113
*1190 FILLER_37_125
*1191 FILLER_37_137
*1192 FILLER_37_149
*1193 FILLER_37_15
*1194 FILLER_37_161
*1195 FILLER_37_167
*1196 FILLER_37_169
*1197 FILLER_37_181
*1198 FILLER_37_193
*1199 FILLER_37_205
*1200 FILLER_37_217
*1201 FILLER_37_223
*1202 FILLER_37_225
*1203 FILLER_37_237
*1204 FILLER_37_249
*1205 FILLER_37_261
*1206 FILLER_37_27
*1207 FILLER_37_273
*1208 FILLER_37_279
*1209 FILLER_37_281
*1210 FILLER_37_293
*1211 FILLER_37_3
*1212 FILLER_37_39
*1213 FILLER_37_51
*1214 FILLER_37_55
*1215 FILLER_37_57
*1216 FILLER_37_69
*1217 FILLER_37_81
*1218 FILLER_37_93
*1219 FILLER_38_109
*1220 FILLER_38_121
*1221 FILLER_38_133
*1222 FILLER_38_139
*1223 FILLER_38_141
*1224 FILLER_38_15
*1225 FILLER_38_153
*1226 FILLER_38_165
*1227 FILLER_38_177
*1228 FILLER_38_189
*1229 FILLER_38_195
*1230 FILLER_38_197
*1231 FILLER_38_209
*1232 FILLER_38_221
*1233 FILLER_38_233
*1234 FILLER_38_245
*1235 FILLER_38_251
*1236 FILLER_38_253
*1237 FILLER_38_265
*1238 FILLER_38_27
*1239 FILLER_38_277
*1240 FILLER_38_289
*1241 FILLER_38_29
*1242 FILLER_38_297
*1243 FILLER_38_3
*1244 FILLER_38_41
*1245 FILLER_38_53
*1246 FILLER_38_65
*1247 FILLER_38_77
*1248 FILLER_38_83
*1249 FILLER_38_85
*1250 FILLER_38_97
*1251 FILLER_39_103
*1252 FILLER_39_111
*1253 FILLER_39_113
*1254 FILLER_39_125
*1255 FILLER_39_137
*1256 FILLER_39_149
*1257 FILLER_39_15
*1258 FILLER_39_161
*1259 FILLER_39_167
*1260 FILLER_39_169
*1261 FILLER_39_181
*1262 FILLER_39_193
*1263 FILLER_39_205
*1264 FILLER_39_217
*1265 FILLER_39_223
*1266 FILLER_39_225
*1267 FILLER_39_237
*1268 FILLER_39_249
*1269 FILLER_39_261
*1270 FILLER_39_27
*1271 FILLER_39_273
*1272 FILLER_39_279
*1273 FILLER_39_281
*1274 FILLER_39_293
*1275 FILLER_39_3
*1276 FILLER_39_35
*1277 FILLER_39_50
*1278 FILLER_39_79
*1279 FILLER_39_91
*1280 FILLER_3_105
*1281 FILLER_3_111
*1282 FILLER_3_113
*1283 FILLER_3_117
*1284 FILLER_3_121
*1285 FILLER_3_128
*1286 FILLER_3_132
*1287 FILLER_3_143
*1288 FILLER_3_149
*1289 FILLER_3_163
*1290 FILLER_3_167
*1291 FILLER_3_169
*1292 FILLER_3_173
*1293 FILLER_3_177
*1294 FILLER_3_185
*1295 FILLER_3_197
*1296 FILLER_3_209
*1297 FILLER_3_221
*1298 FILLER_3_225
*1299 FILLER_3_237
*1300 FILLER_3_249
*1301 FILLER_3_261
*1302 FILLER_3_27
*1303 FILLER_3_273
*1304 FILLER_3_279
*1305 FILLER_3_281
*1306 FILLER_3_293
*1307 FILLER_3_3
*1308 FILLER_3_49
*1309 FILLER_3_55
*1310 FILLER_3_73
*1311 FILLER_3_85
*1312 FILLER_3_97
*1313 FILLER_40_109
*1314 FILLER_40_121
*1315 FILLER_40_133
*1316 FILLER_40_139
*1317 FILLER_40_141
*1318 FILLER_40_15
*1319 FILLER_40_153
*1320 FILLER_40_165
*1321 FILLER_40_177
*1322 FILLER_40_189
*1323 FILLER_40_195
*1324 FILLER_40_197
*1325 FILLER_40_209
*1326 FILLER_40_221
*1327 FILLER_40_233
*1328 FILLER_40_245
*1329 FILLER_40_251
*1330 FILLER_40_253
*1331 FILLER_40_265
*1332 FILLER_40_27
*1333 FILLER_40_277
*1334 FILLER_40_289
*1335 FILLER_40_29
*1336 FILLER_40_297
*1337 FILLER_40_3
*1338 FILLER_40_41
*1339 FILLER_40_53
*1340 FILLER_40_65
*1341 FILLER_40_77
*1342 FILLER_40_83
*1343 FILLER_40_85
*1344 FILLER_40_97
*1345 FILLER_41_105
*1346 FILLER_41_111
*1347 FILLER_41_113
*1348 FILLER_41_125
*1349 FILLER_41_137
*1350 FILLER_41_149
*1351 FILLER_41_15
*1352 FILLER_41_161
*1353 FILLER_41_167
*1354 FILLER_41_169
*1355 FILLER_41_181
*1356 FILLER_41_193
*1357 FILLER_41_205
*1358 FILLER_41_217
*1359 FILLER_41_223
*1360 FILLER_41_225
*1361 FILLER_41_237
*1362 FILLER_41_249
*1363 FILLER_41_261
*1364 FILLER_41_27
*1365 FILLER_41_273
*1366 FILLER_41_279
*1367 FILLER_41_281
*1368 FILLER_41_293
*1369 FILLER_41_3
*1370 FILLER_41_39
*1371 FILLER_41_51
*1372 FILLER_41_55
*1373 FILLER_41_57
*1374 FILLER_41_69
*1375 FILLER_41_81
*1376 FILLER_41_93
*1377 FILLER_42_109
*1378 FILLER_42_121
*1379 FILLER_42_133
*1380 FILLER_42_139
*1381 FILLER_42_141
*1382 FILLER_42_15
*1383 FILLER_42_153
*1384 FILLER_42_165
*1385 FILLER_42_177
*1386 FILLER_42_189
*1387 FILLER_42_195
*1388 FILLER_42_197
*1389 FILLER_42_209
*1390 FILLER_42_221
*1391 FILLER_42_233
*1392 FILLER_42_245
*1393 FILLER_42_251
*1394 FILLER_42_253
*1395 FILLER_42_265
*1396 FILLER_42_27
*1397 FILLER_42_277
*1398 FILLER_42_289
*1399 FILLER_42_29
*1400 FILLER_42_297
*1401 FILLER_42_3
*1402 FILLER_42_41
*1403 FILLER_42_53
*1404 FILLER_42_65
*1405 FILLER_42_77
*1406 FILLER_42_83
*1407 FILLER_42_85
*1408 FILLER_42_97
*1409 FILLER_43_105
*1410 FILLER_43_111
*1411 FILLER_43_113
*1412 FILLER_43_125
*1413 FILLER_43_137
*1414 FILLER_43_149
*1415 FILLER_43_15
*1416 FILLER_43_161
*1417 FILLER_43_167
*1418 FILLER_43_169
*1419 FILLER_43_181
*1420 FILLER_43_193
*1421 FILLER_43_205
*1422 FILLER_43_217
*1423 FILLER_43_223
*1424 FILLER_43_225
*1425 FILLER_43_237
*1426 FILLER_43_249
*1427 FILLER_43_261
*1428 FILLER_43_27
*1429 FILLER_43_273
*1430 FILLER_43_279
*1431 FILLER_43_281
*1432 FILLER_43_293
*1433 FILLER_43_3
*1434 FILLER_43_39
*1435 FILLER_43_51
*1436 FILLER_43_55
*1437 FILLER_43_57
*1438 FILLER_43_69
*1439 FILLER_43_81
*1440 FILLER_43_93
*1441 FILLER_44_109
*1442 FILLER_44_11
*1443 FILLER_44_121
*1444 FILLER_44_133
*1445 FILLER_44_139
*1446 FILLER_44_141
*1447 FILLER_44_153
*1448 FILLER_44_165
*1449 FILLER_44_177
*1450 FILLER_44_189
*1451 FILLER_44_195
*1452 FILLER_44_197
*1453 FILLER_44_209
*1454 FILLER_44_221
*1455 FILLER_44_23
*1456 FILLER_44_233
*1457 FILLER_44_245
*1458 FILLER_44_251
*1459 FILLER_44_253
*1460 FILLER_44_265
*1461 FILLER_44_27
*1462 FILLER_44_277
*1463 FILLER_44_289
*1464 FILLER_44_29
*1465 FILLER_44_297
*1466 FILLER_44_3
*1467 FILLER_44_41
*1468 FILLER_44_53
*1469 FILLER_44_65
*1470 FILLER_44_77
*1471 FILLER_44_83
*1472 FILLER_44_85
*1473 FILLER_44_97
*1474 FILLER_45_105
*1475 FILLER_45_111
*1476 FILLER_45_113
*1477 FILLER_45_125
*1478 FILLER_45_137
*1479 FILLER_45_149
*1480 FILLER_45_15
*1481 FILLER_45_161
*1482 FILLER_45_167
*1483 FILLER_45_169
*1484 FILLER_45_181
*1485 FILLER_45_193
*1486 FILLER_45_205
*1487 FILLER_45_217
*1488 FILLER_45_223
*1489 FILLER_45_225
*1490 FILLER_45_237
*1491 FILLER_45_249
*1492 FILLER_45_261
*1493 FILLER_45_27
*1494 FILLER_45_273
*1495 FILLER_45_279
*1496 FILLER_45_281
*1497 FILLER_45_293
*1498 FILLER_45_3
*1499 FILLER_45_39
*1500 FILLER_45_51
*1501 FILLER_45_55
*1502 FILLER_45_57
*1503 FILLER_45_69
*1504 FILLER_45_81
*1505 FILLER_45_93
*1506 FILLER_46_109
*1507 FILLER_46_121
*1508 FILLER_46_133
*1509 FILLER_46_139
*1510 FILLER_46_141
*1511 FILLER_46_15
*1512 FILLER_46_153
*1513 FILLER_46_165
*1514 FILLER_46_177
*1515 FILLER_46_189
*1516 FILLER_46_195
*1517 FILLER_46_197
*1518 FILLER_46_209
*1519 FILLER_46_221
*1520 FILLER_46_233
*1521 FILLER_46_245
*1522 FILLER_46_251
*1523 FILLER_46_253
*1524 FILLER_46_265
*1525 FILLER_46_27
*1526 FILLER_46_277
*1527 FILLER_46_289
*1528 FILLER_46_29
*1529 FILLER_46_297
*1530 FILLER_46_3
*1531 FILLER_46_41
*1532 FILLER_46_53
*1533 FILLER_46_65
*1534 FILLER_46_77
*1535 FILLER_46_83
*1536 FILLER_46_85
*1537 FILLER_46_97
*1538 FILLER_47_105
*1539 FILLER_47_111
*1540 FILLER_47_113
*1541 FILLER_47_125
*1542 FILLER_47_137
*1543 FILLER_47_149
*1544 FILLER_47_15
*1545 FILLER_47_161
*1546 FILLER_47_167
*1547 FILLER_47_169
*1548 FILLER_47_181
*1549 FILLER_47_193
*1550 FILLER_47_205
*1551 FILLER_47_217
*1552 FILLER_47_223
*1553 FILLER_47_225
*1554 FILLER_47_237
*1555 FILLER_47_249
*1556 FILLER_47_261
*1557 FILLER_47_27
*1558 FILLER_47_273
*1559 FILLER_47_279
*1560 FILLER_47_281
*1561 FILLER_47_293
*1562 FILLER_47_3
*1563 FILLER_47_39
*1564 FILLER_47_51
*1565 FILLER_47_55
*1566 FILLER_47_57
*1567 FILLER_47_69
*1568 FILLER_47_81
*1569 FILLER_47_93
*1570 FILLER_48_109
*1571 FILLER_48_121
*1572 FILLER_48_133
*1573 FILLER_48_139
*1574 FILLER_48_141
*1575 FILLER_48_15
*1576 FILLER_48_153
*1577 FILLER_48_165
*1578 FILLER_48_177
*1579 FILLER_48_189
*1580 FILLER_48_195
*1581 FILLER_48_197
*1582 FILLER_48_209
*1583 FILLER_48_221
*1584 FILLER_48_233
*1585 FILLER_48_245
*1586 FILLER_48_251
*1587 FILLER_48_253
*1588 FILLER_48_265
*1589 FILLER_48_27
*1590 FILLER_48_277
*1591 FILLER_48_289
*1592 FILLER_48_29
*1593 FILLER_48_297
*1594 FILLER_48_3
*1595 FILLER_48_41
*1596 FILLER_48_53
*1597 FILLER_48_65
*1598 FILLER_48_77
*1599 FILLER_48_83
*1600 FILLER_48_85
*1601 FILLER_48_97
*1602 FILLER_49_105
*1603 FILLER_49_111
*1604 FILLER_49_113
*1605 FILLER_49_125
*1606 FILLER_49_137
*1607 FILLER_49_149
*1608 FILLER_49_15
*1609 FILLER_49_161
*1610 FILLER_49_167
*1611 FILLER_49_169
*1612 FILLER_49_181
*1613 FILLER_49_193
*1614 FILLER_49_205
*1615 FILLER_49_217
*1616 FILLER_49_223
*1617 FILLER_49_225
*1618 FILLER_49_237
*1619 FILLER_49_249
*1620 FILLER_49_261
*1621 FILLER_49_27
*1622 FILLER_49_273
*1623 FILLER_49_279
*1624 FILLER_49_281
*1625 FILLER_49_293
*1626 FILLER_49_3
*1627 FILLER_49_39
*1628 FILLER_49_51
*1629 FILLER_49_55
*1630 FILLER_49_57
*1631 FILLER_49_69
*1632 FILLER_49_81
*1633 FILLER_49_93
*1634 FILLER_4_100
*1635 FILLER_4_108
*1636 FILLER_4_115
*1637 FILLER_4_121
*1638 FILLER_4_128
*1639 FILLER_4_163
*1640 FILLER_4_175
*1641 FILLER_4_187
*1642 FILLER_4_19
*1643 FILLER_4_195
*1644 FILLER_4_197
*1645 FILLER_4_209
*1646 FILLER_4_221
*1647 FILLER_4_233
*1648 FILLER_4_245
*1649 FILLER_4_251
*1650 FILLER_4_253