*SPEF "ieee 1481-1999"
*DESIGN "xyz_peppergray_Potato1_top"
*DATE "11:11:11 Fri 11 11, 1111"
*VENDOR "OpenRCX"
*PROGRAM "Parallel Extraction"
*VERSION "1.0"
*DESIGN_FLOW "NAME_SCOPE LOCAL" "PIN_CAP NONE"
*DIVIDER /
*DELIMITER :
*BUS_DELIMITER []
*T_UNIT 1 NS
*C_UNIT 1 PF
*R_UNIT 1 OHM
*L_UNIT 1 HENRY

*NAME_MAP
*1 io_in[0]
*2 io_in[1]
*3 io_in[2]
*4 io_in[3]
*5 io_in[4]
*6 io_in[5]
*7 io_in[6]
*8 io_in[7]
*9 io_out[0]
*10 io_out[1]
*11 io_out[2]
*12 io_out[3]
*13 io_out[4]
*14 io_out[5]
*15 io_out[6]
*16 io_out[7]
*19 Control\[0\]
*20 Control\[1\]
*21 Control\[2\]
*22 Control\[3\]
*23 Control\[4\]
*24 Control\[5\]
*25 Control\[8\]
*26 Control_PC\[0\]
*27 Control_PC\[1\]
*28 IOWait
*29 Instruction\[0\]
*30 Instruction\[1\]
*31 Instruction\[2\]
*32 Instruction\[3\]
*33 LoopCounter\[0\]
*34 LoopCounter\[10\]
*35 LoopCounter\[11\]
*36 LoopCounter\[12\]
*37 LoopCounter\[13\]
*38 LoopCounter\[14\]
*39 LoopCounter\[15\]
*40 LoopCounter\[1\]
*41 LoopCounter\[2\]
*42 LoopCounter\[3\]
*43 LoopCounter\[4\]
*44 LoopCounter\[5\]
*45 LoopCounter\[6\]
*46 LoopCounter\[7\]
*47 LoopCounter\[8\]
*48 LoopCounter\[9\]
*49 LoopJmpMark\[0\]
*50 LoopJmpMark\[10\]
*51 LoopJmpMark\[11\]
*52 LoopJmpMark\[12\]
*53 LoopJmpMark\[13\]
*54 LoopJmpMark\[14\]
*55 LoopJmpMark\[15\]
*56 LoopJmpMark\[1\]
*57 LoopJmpMark\[2\]
*58 LoopJmpMark\[3\]
*59 LoopJmpMark\[4\]
*60 LoopJmpMark\[5\]
*61 LoopJmpMark\[6\]
*62 LoopJmpMark\[7\]
*63 LoopJmpMark\[8\]
*64 LoopJmpMark\[9\]
*65 ZeroFlag
*66 _000_
*67 _001_
*68 _002_
*69 _003_
*70 _004_
*71 _005_
*72 _006_
*73 _007_
*74 _008_
*75 _009_
*76 _010_
*77 _011_
*78 _012_
*79 _013_
*80 _014_
*81 _015_
*82 _016_
*83 _059_
*84 _060_
*85 _061_
*86 _062_
*87 _063_
*88 _064_
*89 _065_
*90 _066_
*91 _067_
*92 _068_
*93 _069_
*94 _070_
*95 _071_
*96 _072_
*97 _073_
*98 _074_
*99 _075_
*100 _076_
*101 _077_
*102 _078_
*103 _079_
*104 _080_
*105 _081_
*106 _082_
*107 _083_
*108 _084_
*109 _085_
*110 _086_
*111 _087_
*112 _088_
*113 _089_
*114 _090_
*115 _091_
*116 _092_
*117 _093_
*118 _094_
*119 _095_
*120 _096_
*121 _097_
*122 _098_
*123 _099_
*124 _100_
*125 _101_
*126 _102_
*127 _103_
*128 _104_
*129 _105_
*130 _106_
*131 _107_
*132 _108_
*133 _109_
*134 _110_
*135 _111_
*136 _112_
*137 _113_
*138 _114_
*139 _115_
*140 _116_
*141 _117_
*142 _118_
*143 _119_
*144 _120_
*145 _121_
*146 _122_
*147 _123_
*148 _124_
*149 _125_
*150 _126_
*151 _127_
*152 _128_
*153 _129_
*154 _130_
*155 _131_
*156 _132_
*157 _133_
*158 _134_
*159 _135_
*160 _136_
*161 _137_
*162 _138_
*163 _139_
*164 _140_
*165 _141_
*166 _142_
*167 _143_
*168 _144_
*169 _145_
*170 _146_
*171 _147_
*172 _148_
*173 _149_
*174 _150_
*175 _151_
*176 _152_
*177 _153_
*178 _154_
*179 _155_
*180 _156_
*181 _157_
*182 _158_
*183 _159_
*184 _160_
*185 _161_
*186 _162_
*187 _163_
*188 _164_
*189 _165_
*190 _166_
*191 _167_
*192 _168_
*193 _169_
*194 _170_
*195 _171_
*196 _172_
*197 _173_
*198 _174_
*199 _175_
*200 _176_
*201 _177_
*202 _178_
*203 _179_
*204 _180_
*205 _181_
*206 _182_
*207 _183_
*208 _184_
*209 _185_
*210 _186_
*211 _187_
*212 _188_
*213 _189_
*214 _190_
*215 _191_
*216 _192_
*217 _193_
*218 _194_
*219 _195_
*220 _196_
*221 _197_
*222 _198_
*223 _199_
*224 _200_
*225 _201_
*226 _202_
*227 _203_
*228 _204_
*229 _205_
*230 _206_
*231 _207_
*232 _208_
*233 _209_
*234 _210_
*235 _211_
*236 _212_
*237 _213_
*238 _214_
*239 _215_
*240 _216_
*241 _217_
*242 _218_
*243 _219_
*244 clknet_0__210_
*245 clknet_0__211_
*246 clknet_0__212_
*247 clknet_0__213_
*248 clknet_0__214_
*249 clknet_0__215_
*250 clknet_0__216_
*251 clknet_0__217_
*252 clknet_0__218_
*253 clknet_0__219_
*254 clknet_0_io_in[0]
*255 clknet_1_0__leaf__210_
*256 clknet_1_0__leaf__211_
*257 clknet_1_0__leaf__212_
*258 clknet_1_0__leaf__213_
*259 clknet_1_0__leaf__214_
*260 clknet_1_0__leaf__215_
*261 clknet_1_0__leaf__216_
*262 clknet_1_0__leaf__217_
*263 clknet_1_0__leaf__218_
*264 clknet_1_0__leaf__219_
*265 clknet_1_0__leaf_io_in[0]
*266 clknet_1_1__leaf__210_
*267 clknet_1_1__leaf__211_
*268 clknet_1_1__leaf__212_
*269 clknet_1_1__leaf__213_
*270 clknet_1_1__leaf__214_
*271 clknet_1_1__leaf__215_
*272 clknet_1_1__leaf__216_
*273 clknet_1_1__leaf__217_
*274 clknet_1_1__leaf__218_
*275 clknet_1_1__leaf__219_
*276 clknet_1_1__leaf_io_in[0]
*277 net1
*278 net10
*279 net11
*280 net12
*281 net13
*282 net14
*283 net15
*284 net16
*285 net17
*286 net18
*287 net19
*288 net2
*289 net20
*290 net21
*291 net22
*292 net23
*293 net24
*294 net25
*295 net26
*296 net27
*297 net28
*298 net29
*299 net3
*300 net30
*301 net31
*302 net32
*303 net33
*304 net34
*305 net35
*306 net36
*307 net37
*308 net38
*309 net39
*310 net4
*311 net40
*312 net41
*313 net42
*314 net43
*315 net44
*316 net45
*317 net46
*318 net47
*319 net48
*320 net49
*321 net5
*322 net50
*323 net51
*324 net52
*325 net53
*326 net54
*327 net55
*328 net56
*329 net57
*330 net58
*331 net59
*332 net6
*333 net60
*334 net61
*335 net62
*336 net63
*337 net64
*338 net65
*339 net7
*340 net8
*341 net9
*342 reverse
*343 skipCmd
*344 FILLER_0_109
*345 FILLER_0_113
*346 FILLER_0_125
*347 FILLER_0_137
*348 FILLER_0_141
*349 FILLER_0_15
*350 FILLER_0_153
*351 FILLER_0_165
*352 FILLER_0_169
*353 FILLER_0_181
*354 FILLER_0_193
*355 FILLER_0_197
*356 FILLER_0_209
*357 FILLER_0_221
*358 FILLER_0_225
*359 FILLER_0_237
*360 FILLER_0_249
*361 FILLER_0_253
*362 FILLER_0_265
*363 FILLER_0_27
*364 FILLER_0_277
*365 FILLER_0_281
*366 FILLER_0_29
*367 FILLER_0_293
*368 FILLER_0_3
*369 FILLER_0_41
*370 FILLER_0_53
*371 FILLER_0_57
*372 FILLER_0_69
*373 FILLER_0_81
*374 FILLER_0_85
*375 FILLER_0_97
*376 FILLER_10_100
*377 FILLER_10_112
*378 FILLER_10_12
*379 FILLER_10_124
*380 FILLER_10_136
*381 FILLER_10_141
*382 FILLER_10_153
*383 FILLER_10_165
*384 FILLER_10_177
*385 FILLER_10_189
*386 FILLER_10_19
*387 FILLER_10_195
*388 FILLER_10_197
*389 FILLER_10_209
*390 FILLER_10_221
*391 FILLER_10_233
*392 FILLER_10_245
*393 FILLER_10_251
*394 FILLER_10_253
*395 FILLER_10_265
*396 FILLER_10_27
*397 FILLER_10_277
*398 FILLER_10_289
*399 FILLER_10_29
*400 FILLER_10_297
*401 FILLER_10_3
*402 FILLER_10_42
*403 FILLER_10_66
*404 FILLER_10_7
*405 FILLER_10_74
*406 FILLER_10_80
*407 FILLER_10_88
*408 FILLER_11_106
*409 FILLER_11_113
*410 FILLER_11_125
*411 FILLER_11_137
*412 FILLER_11_149
*413 FILLER_11_161
*414 FILLER_11_167
*415 FILLER_11_169
*416 FILLER_11_181
*417 FILLER_11_193
*418 FILLER_11_205
*419 FILLER_11_217
*420 FILLER_11_223
*421 FILLER_11_225
*422 FILLER_11_237
*423 FILLER_11_249
*424 FILLER_11_261
*425 FILLER_11_273
*426 FILLER_11_279
*427 FILLER_11_28
*428 FILLER_11_281
*429 FILLER_11_293
*430 FILLER_11_3
*431 FILLER_11_52
*432 FILLER_11_60
*433 FILLER_11_64
*434 FILLER_11_7
*435 FILLER_11_72
*436 FILLER_11_82
*437 FILLER_11_94
*438 FILLER_12_100
*439 FILLER_12_108
*440 FILLER_12_121
*441 FILLER_12_133
*442 FILLER_12_139
*443 FILLER_12_141
*444 FILLER_12_153
*445 FILLER_12_165
*446 FILLER_12_177
*447 FILLER_12_189
*448 FILLER_12_195
*449 FILLER_12_197
*450 FILLER_12_209
*451 FILLER_12_221
*452 FILLER_12_23
*453 FILLER_12_233
*454 FILLER_12_245
*455 FILLER_12_251
*456 FILLER_12_253
*457 FILLER_12_265
*458 FILLER_12_27
*459 FILLER_12_277
*460 FILLER_12_289
*461 FILLER_12_29
*462 FILLER_12_297
*463 FILLER_12_37
*464 FILLER_12_65
*465 FILLER_12_69
*466 FILLER_12_77
*467 FILLER_12_83
*468 FILLER_12_85
*469 FILLER_12_96
*470 FILLER_13_108
*471 FILLER_13_121
*472 FILLER_13_130
*473 FILLER_13_142
*474 FILLER_13_15
*475 FILLER_13_154
*476 FILLER_13_166
*477 FILLER_13_169
*478 FILLER_13_181
*479 FILLER_13_193
*480 FILLER_13_205
*481 FILLER_13_217
*482 FILLER_13_223
*483 FILLER_13_225
*484 FILLER_13_237
*485 FILLER_13_249
*486 FILLER_13_261
*487 FILLER_13_273
*488 FILLER_13_279
*489 FILLER_13_281
*490 FILLER_13_293
*491 FILLER_13_3
*492 FILLER_13_39
*493 FILLER_13_47
*494 FILLER_13_55
*495 FILLER_13_60
*496 FILLER_13_67
*497 FILLER_13_71
*498 FILLER_13_79
*499 FILLER_13_8
*500 FILLER_13_90
*501 FILLER_13_97
*502 FILLER_14_10
*503 FILLER_14_106
*504 FILLER_14_117
*505 FILLER_14_128
*506 FILLER_14_136
*507 FILLER_14_144
*508 FILLER_14_156
*509 FILLER_14_168
*510 FILLER_14_17
*511 FILLER_14_180
*512 FILLER_14_192
*513 FILLER_14_197
*514 FILLER_14_209
*515 FILLER_14_221
*516 FILLER_14_233
*517 FILLER_14_24
*518 FILLER_14_245
*519 FILLER_14_251
*520 FILLER_14_253
*521 FILLER_14_265
*522 FILLER_14_277
*523 FILLER_14_289
*524 FILLER_14_29
*525 FILLER_14_297
*526 FILLER_14_3
*527 FILLER_14_42
*528 FILLER_14_67
*529 FILLER_14_79
*530 FILLER_14_83
*531 FILLER_14_85
*532 FILLER_14_89
*533 FILLER_14_99
*534 FILLER_15_105
*535 FILLER_15_111
*536 FILLER_15_126
*537 FILLER_15_141
*538 FILLER_15_153
*539 FILLER_15_165
*540 FILLER_15_169
*541 FILLER_15_181
*542 FILLER_15_193
*543 FILLER_15_205
*544 FILLER_15_217
*545 FILLER_15_223
*546 FILLER_15_225
*547 FILLER_15_237
*548 FILLER_15_249
*549 FILLER_15_25
*550 FILLER_15_261
*551 FILLER_15_273
*552 FILLER_15_279
*553 FILLER_15_281
*554 FILLER_15_293
*555 FILLER_15_3
*556 FILLER_15_49
*557 FILLER_15_55
*558 FILLER_15_66
*559 FILLER_15_75
*560 FILLER_15_83
*561 FILLER_16_121
*562 FILLER_16_131
*563 FILLER_16_139
*564 FILLER_16_141
*565 FILLER_16_153
*566 FILLER_16_165
*567 FILLER_16_177
*568 FILLER_16_189
*569 FILLER_16_195
*570 FILLER_16_197
*571 FILLER_16_209
*572 FILLER_16_221
*573 FILLER_16_233
*574 FILLER_16_24
*575 FILLER_16_245
*576 FILLER_16_251
*577 FILLER_16_253
*578 FILLER_16_265
*579 FILLER_16_277
*580 FILLER_16_289
*581 FILLER_16_29
*582 FILLER_16_297
*583 FILLER_16_3
*584 FILLER_16_33
*585 FILLER_16_41
*586 FILLER_16_65
*587 FILLER_16_78
*588 FILLER_16_85
*589 FILLER_16_89
*590 FILLER_16_97
*591 FILLER_17_107
*592 FILLER_17_111
*593 FILLER_17_116
*594 FILLER_17_128
*595 FILLER_17_139
*596 FILLER_17_149
*597 FILLER_17_161
*598 FILLER_17_167
*599 FILLER_17_169
*600 FILLER_17_181
*601 FILLER_17_193
*602 FILLER_17_205
*603 FILLER_17_217
*604 FILLER_17_223
*605 FILLER_17_225
*606 FILLER_17_237
*607 FILLER_17_24
*608 FILLER_17_249
*609 FILLER_17_261
*610 FILLER_17_273
*611 FILLER_17_279
*612 FILLER_17_281
*613 FILLER_17_293
*614 FILLER_17_48
*615 FILLER_17_64
*616 FILLER_17_72
*617 FILLER_17_93
*618 FILLER_18_103
*619 FILLER_18_128
*620 FILLER_18_148
*621 FILLER_18_160
*622 FILLER_18_172
*623 FILLER_18_184
*624 FILLER_18_197
*625 FILLER_18_209
*626 FILLER_18_221
*627 FILLER_18_233
*628 FILLER_18_24
*629 FILLER_18_245
*630 FILLER_18_251
*631 FILLER_18_253
*632 FILLER_18_265
*633 FILLER_18_277
*634 FILLER_18_289
*635 FILLER_18_29
*636 FILLER_18_297
*637 FILLER_18_3
*638 FILLER_18_33
*639 FILLER_18_37
*640 FILLER_18_41
*641 FILLER_18_62
*642 FILLER_18_74
*643 FILLER_18_82
*644 FILLER_18_89
*645 FILLER_18_93
*646 FILLER_19_108
*647 FILLER_19_13
*648 FILLER_19_133
*649 FILLER_19_145
*650 FILLER_19_157
*651 FILLER_19_165
*652 FILLER_19_169
*653 FILLER_19_181
*654 FILLER_19_193
*655 FILLER_19_205
*656 FILLER_19_217
*657 FILLER_19_223
*658 FILLER_19_225
*659 FILLER_19_237
*660 FILLER_19_249
*661 FILLER_19_261
*662 FILLER_19_273
*663 FILLER_19_279
*664 FILLER_19_281
*665 FILLER_19_293
*666 FILLER_19_37
*667 FILLER_19_50
*668 FILLER_19_6
*669 FILLER_19_60
*670 FILLER_19_84
*671 FILLER_1_105
*672 FILLER_1_111
*673 FILLER_1_113
*674 FILLER_1_125
*675 FILLER_1_137
*676 FILLER_1_149
*677 FILLER_1_15
*678 FILLER_1_161
*679 FILLER_1_167
*680 FILLER_1_169
*681 FILLER_1_181
*682 FILLER_1_193
*683 FILLER_1_205
*684 FILLER_1_217
*685 FILLER_1_223
*686 FILLER_1_225
*687 FILLER_1_237
*688 FILLER_1_249
*689 FILLER_1_261
*690 FILLER_1_27
*691 FILLER_1_273
*692 FILLER_1_279
*693 FILLER_1_281
*694 FILLER_1_293
*695 FILLER_1_3
*696 FILLER_1_39
*697 FILLER_1_51
*698 FILLER_1_55
*699 FILLER_1_57
*700 FILLER_1_69
*701 FILLER_1_81
*702 FILLER_1_93
*703 FILLER_20_106
*704 FILLER_20_118
*705 FILLER_20_123
*706 FILLER_20_130
*707 FILLER_20_138
*708 FILLER_20_147
*709 FILLER_20_159
*710 FILLER_20_171
*711 FILLER_20_183
*712 FILLER_20_195
*713 FILLER_20_197
*714 FILLER_20_209
*715 FILLER_20_221
*716 FILLER_20_233
*717 FILLER_20_24
*718 FILLER_20_245
*719 FILLER_20_251
*720 FILLER_20_253
*721 FILLER_20_265
*722 FILLER_20_277
*723 FILLER_20_289
*724 FILLER_20_297
*725 FILLER_20_38
*726 FILLER_20_62
*727 FILLER_20_68
*728 FILLER_20_72
*729 FILLER_20_79
*730 FILLER_20_83
*731 FILLER_20_85
*732 FILLER_20_93
*733 FILLER_20_99
*734 FILLER_21_106
*735 FILLER_21_113
*736 FILLER_21_121
*737 FILLER_21_132
*738 FILLER_21_143
*739 FILLER_21_155
*740 FILLER_21_167
*741 FILLER_21_169
*742 FILLER_21_181
*743 FILLER_21_193
*744 FILLER_21_205
*745 FILLER_21_217
*746 FILLER_21_223
*747 FILLER_21_225
*748 FILLER_21_237
*749 FILLER_21_249
*750 FILLER_21_25
*751 FILLER_21_261
*752 FILLER_21_273
*753 FILLER_21_279
*754 FILLER_21_281
*755 FILLER_21_293
*756 FILLER_21_3
*757 FILLER_21_49
*758 FILLER_21_55
*759 FILLER_21_57
*760 FILLER_21_65
*761 FILLER_21_74
*762 FILLER_21_78
*763 FILLER_21_99
*764 FILLER_22_102
*765 FILLER_22_126
*766 FILLER_22_134
*767 FILLER_22_141
*768 FILLER_22_153
*769 FILLER_22_165
*770 FILLER_22_177
*771 FILLER_22_189
*772 FILLER_22_195
*773 FILLER_22_197
*774 FILLER_22_209
*775 FILLER_22_221
*776 FILLER_22_233
*777 FILLER_22_24
*778 FILLER_22_245
*779 FILLER_22_251
*780 FILLER_22_253
*781 FILLER_22_265
*782 FILLER_22_277
*783 FILLER_22_289
*784 FILLER_22_29
*785 FILLER_22_297
*786 FILLER_22_34
*787 FILLER_22_41
*788 FILLER_22_65
*789 FILLER_22_74
*790 FILLER_22_82
*791 FILLER_22_94
*792 FILLER_22_98
*793 FILLER_23_104
*794 FILLER_23_113
*795 FILLER_23_12
*796 FILLER_23_137
*797 FILLER_23_146
*798 FILLER_23_158
*799 FILLER_23_166
*800 FILLER_23_169
*801 FILLER_23_181
*802 FILLER_23_193
*803 FILLER_23_205
*804 FILLER_23_217
*805 FILLER_23_223
*806 FILLER_23_225
*807 FILLER_23_237
*808 FILLER_23_249
*809 FILLER_23_261
*810 FILLER_23_273
*811 FILLER_23_279
*812 FILLER_23_281
*813 FILLER_23_293
*814 FILLER_23_3
*815 FILLER_23_36
*816 FILLER_23_47
*817 FILLER_23_55
*818 FILLER_23_57
*819 FILLER_23_69
*820 FILLER_23_7
*821 FILLER_23_93
*822 FILLER_24_103
*823 FILLER_24_110
*824 FILLER_24_117
*825 FILLER_24_128
*826 FILLER_24_147
*827 FILLER_24_159
*828 FILLER_24_171
*829 FILLER_24_183
*830 FILLER_24_195
*831 FILLER_24_197
*832 FILLER_24_209
*833 FILLER_24_221
*834 FILLER_24_233
*835 FILLER_24_24
*836 FILLER_24_245
*837 FILLER_24_251
*838 FILLER_24_253
*839 FILLER_24_265
*840 FILLER_24_277
*841 FILLER_24_289
*842 FILLER_24_29
*843 FILLER_24_297
*844 FILLER_24_3
*845 FILLER_24_34
*846 FILLER_24_45
*847 FILLER_24_52
*848 FILLER_24_63
*849 FILLER_24_73
*850 FILLER_24_80
*851 FILLER_24_85
*852 FILLER_24_96
*853 FILLER_25_105
*854 FILLER_25_111
*855 FILLER_25_133
*856 FILLER_25_137
*857 FILLER_25_143
*858 FILLER_25_150
*859 FILLER_25_157
*860 FILLER_25_165
*861 FILLER_25_169
*862 FILLER_25_181
*863 FILLER_25_193
*864 FILLER_25_205
*865 FILLER_25_217
*866 FILLER_25_223
*867 FILLER_25_225
*868 FILLER_25_237
*869 FILLER_25_24
*870 FILLER_25_249
*871 FILLER_25_261
*872 FILLER_25_273
*873 FILLER_25_279
*874 FILLER_25_281
*875 FILLER_25_293
*876 FILLER_25_38
*877 FILLER_25_42
*878 FILLER_25_49
*879 FILLER_25_55
*880 FILLER_25_63
*881 FILLER_25_70
*882 FILLER_25_94
*883 FILLER_26_121
*884 FILLER_26_129
*885 FILLER_26_136
*886 FILLER_26_148
*887 FILLER_26_160
*888 FILLER_26_172
*889 FILLER_26_184
*890 FILLER_26_197
*891 FILLER_26_209
*892 FILLER_26_221
*893 FILLER_26_23
*894 FILLER_26_233
*895 FILLER_26_245
*896 FILLER_26_251
*897 FILLER_26_253
*898 FILLER_26_265
*899 FILLER_26_27
*900 FILLER_26_277
*901 FILLER_26_289
*902 FILLER_26_29
*903 FILLER_26_297
*904 FILLER_26_36
*905 FILLER_26_49
*906 FILLER_26_58
*907 FILLER_26_72
*908 FILLER_26_76
*909 FILLER_26_80
*910 FILLER_26_89
*911 FILLER_26_93
*912 FILLER_26_97
*913 FILLER_27_105
*914 FILLER_27_111
*915 FILLER_27_133
*916 FILLER_27_145
*917 FILLER_27_157
*918 FILLER_27_165
*919 FILLER_27_169
*920 FILLER_27_181
*921 FILLER_27_19
*922 FILLER_27_193
*923 FILLER_27_205
*924 FILLER_27_217
*925 FILLER_27_223
*926 FILLER_27_225
*927 FILLER_27_23
*928 FILLER_27_237
*929 FILLER_27_249
*930 FILLER_27_261
*931 FILLER_27_273
*932 FILLER_27_279
*933 FILLER_27_281
*934 FILLER_27_29
*935 FILLER_27_293
*936 FILLER_27_3
*937 FILLER_27_40
*938 FILLER_27_52
*939 FILLER_27_57
*940 FILLER_27_69
*941 FILLER_27_73
*942 FILLER_27_9
*943 FILLER_27_94
*944 FILLER_27_98
*945 FILLER_28_107
*946 FILLER_28_114
*947 FILLER_28_125
*948 FILLER_28_13
*949 FILLER_28_133
*950 FILLER_28_139
*951 FILLER_28_148
*952 FILLER_28_160
*953 FILLER_28_172
*954 FILLER_28_184
*955 FILLER_28_197
*956 FILLER_28_209
*957 FILLER_28_221
*958 FILLER_28_233
*959 FILLER_28_24
*960 FILLER_28_245
*961 FILLER_28_251
*962 FILLER_28_253
*963 FILLER_28_265
*964 FILLER_28_277
*965 FILLER_28_289
*966 FILLER_28_297
*967 FILLER_28_3
*968 FILLER_28_37
*969 FILLER_28_62
*970 FILLER_28_7
*971 FILLER_28_73
*972 FILLER_28_80
*973 FILLER_28_85
*974 FILLER_28_96
*975 FILLER_29_104
*976 FILLER_29_118
*977 FILLER_29_133
*978 FILLER_29_145
*979 FILLER_29_157
*980 FILLER_29_165
*981 FILLER_29_169
*982 FILLER_29_181
*983 FILLER_29_193
*984 FILLER_29_205
*985 FILLER_29_21
*986 FILLER_29_217
*987 FILLER_29_223
*988 FILLER_29_225
*989 FILLER_29_237
*990 FILLER_29_249
*991 FILLER_29_261
*992 FILLER_29_273
*993 FILLER_29_279
*994 FILLER_29_28
*995 FILLER_29_281
*996 FILLER_29_293
*997 FILLER_29_3
*998 FILLER_29_52
*999 FILLER_29_7
*1000 FILLER_29_77
*1001 FILLER_29_81
*1002 FILLER_29_86
*1003 FILLER_29_94
*1004 FILLER_2_109
*1005 FILLER_2_121
*1006 FILLER_2_133
*1007 FILLER_2_139
*1008 FILLER_2_141
*1009 FILLER_2_15
*1010 FILLER_2_153
*1011 FILLER_2_165
*1012 FILLER_2_177
*1013 FILLER_2_189
*1014 FILLER_2_195
*1015 FILLER_2_197
*1016 FILLER_2_209
*1017 FILLER_2_221
*1018 FILLER_2_233
*1019 FILLER_2_245
*1020 FILLER_2_251
*1021 FILLER_2_253
*1022 FILLER_2_265
*1023 FILLER_2_27
*1024 FILLER_2_277
*1025 FILLER_2_289
*1026 FILLER_2_29
*1027 FILLER_2_297
*1028 FILLER_2_3
*1029 FILLER_2_41
*1030 FILLER_2_53
*1031 FILLER_2_65
*1032 FILLER_2_77
*1033 FILLER_2_83
*1034 FILLER_2_85
*1035 FILLER_2_97
*1036 FILLER_30_100
*1037 FILLER_30_121
*1038 FILLER_30_125
*1039 FILLER_30_136
*1040 FILLER_30_146
*1041 FILLER_30_158
*1042 FILLER_30_170
*1043 FILLER_30_182
*1044 FILLER_30_194
*1045 FILLER_30_197
*1046 FILLER_30_209
*1047 FILLER_30_221
*1048 FILLER_30_233
*1049 FILLER_30_24
*1050 FILLER_30_245
*1051 FILLER_30_251
*1052 FILLER_30_253
*1053 FILLER_30_265
*1054 FILLER_30_277
*1055 FILLER_30_289
*1056 FILLER_30_297
*1057 FILLER_30_3
*1058 FILLER_30_32
*1059 FILLER_30_56
*1060 FILLER_30_80
*1061 FILLER_30_94
*1062 FILLER_31_102
*1063 FILLER_31_110
*1064 FILLER_31_119
*1065 FILLER_31_127
*1066 FILLER_31_139
*1067 FILLER_31_151
*1068 FILLER_31_163
*1069 FILLER_31_167
*1070 FILLER_31_169
*1071 FILLER_31_181
*1072 FILLER_31_193
*1073 FILLER_31_205
*1074 FILLER_31_217
*1075 FILLER_31_223
*1076 FILLER_31_225
*1077 FILLER_31_237
*1078 FILLER_31_249
*1079 FILLER_31_26
*1080 FILLER_31_261
*1081 FILLER_31_273
*1082 FILLER_31_279
*1083 FILLER_31_281
*1084 FILLER_31_293
*1085 FILLER_31_52
*1086 FILLER_31_63
*1087 FILLER_31_91
*1088 FILLER_32_119
*1089 FILLER_32_126
*1090 FILLER_32_138
*1091 FILLER_32_141
*1092 FILLER_32_153
*1093 FILLER_32_165
*1094 FILLER_32_177
*1095 FILLER_32_189
*1096 FILLER_32_195
*1097 FILLER_32_197
*1098 FILLER_32_20
*1099 FILLER_32_209
*1100 FILLER_32_221
*1101 FILLER_32_233
*1102 FILLER_32_245
*1103 FILLER_32_251
*1104 FILLER_32_253
*1105 FILLER_32_265
*1106 FILLER_32_277
*1107 FILLER_32_289
*1108 FILLER_32_297
*1109 FILLER_32_3
*1110 FILLER_32_35
*1111 FILLER_32_43
*1112 FILLER_32_65
*1113 FILLER_32_71
*1114 FILLER_32_75
*1115 FILLER_32_8
*1116 FILLER_32_83
*1117 FILLER_32_88
*1118 FILLER_32_95
*1119 FILLER_33_106
*1120 FILLER_33_113
*1121 FILLER_33_117
*1122 FILLER_33_125
*1123 FILLER_33_138
*1124 FILLER_33_150
*1125 FILLER_33_162
*1126 FILLER_33_169
*1127 FILLER_33_181
*1128 FILLER_33_19
*1129 FILLER_33_193
*1130 FILLER_33_205
*1131 FILLER_33_217
*1132 FILLER_33_223
*1133 FILLER_33_225
*1134 FILLER_33_23
*1135 FILLER_33_237
*1136 FILLER_33_249
*1137 FILLER_33_261
*1138 FILLER_33_273
*1139 FILLER_33_279
*1140 FILLER_33_28
*1141 FILLER_33_281
*1142 FILLER_33_293
*1143 FILLER_33_3
*1144 FILLER_33_52
*1145 FILLER_33_64
*1146 FILLER_33_7
*1147 FILLER_33_90
*1148 FILLER_33_99
*1149 FILLER_34_119
*1150 FILLER_34_133
*1151 FILLER_34_139
*1152 FILLER_34_148
*1153 FILLER_34_16
*1154 FILLER_34_160
*1155 FILLER_34_172
*1156 FILLER_34_184
*1157 FILLER_34_197
*1158 FILLER_34_209
*1159 FILLER_34_221
*1160 FILLER_34_233
*1161 FILLER_34_24
*1162 FILLER_34_245
*1163 FILLER_34_251
*1164 FILLER_34_253
*1165 FILLER_34_265
*1166 FILLER_34_277
*1167 FILLER_34_289
*1168 FILLER_34_297
*1169 FILLER_34_3
*1170 FILLER_34_35
*1171 FILLER_34_43
*1172 FILLER_34_53
*1173 FILLER_34_61
*1174 FILLER_34_68
*1175 FILLER_34_75
*1176 FILLER_34_83
*1177 FILLER_34_9
*1178 FILLER_34_94
*1179 FILLER_34_98
*1180 FILLER_35_102
*1181 FILLER_35_110
*1182 FILLER_35_113
*1183 FILLER_35_121
*1184 FILLER_35_128
*1185 FILLER_35_136
*1186 FILLER_35_148
*1187 FILLER_35_160
*1188 FILLER_35_169
*1189 FILLER_35_181
*1190 FILLER_35_193
*1191 FILLER_35_20
*1192 FILLER_35_205
*1193 FILLER_35_217
*1194 FILLER_35_223
*1195 FILLER_35_225
*1196 FILLER_35_237
*1197 FILLER_35_249
*1198 FILLER_35_261
*1199 FILLER_35_273
*1200 FILLER_35_279
*1201 FILLER_35_281
*1202 FILLER_35_293
*1203 FILLER_35_3
*1204 FILLER_35_49
*1205 FILLER_35_55
*1206 FILLER_35_64
*1207 FILLER_35_74
*1208 FILLER_35_8
*1209 FILLER_35_81
*1210 FILLER_35_88
*1211 FILLER_35_96
*1212 FILLER_36_10
*1213 FILLER_36_114
*1214 FILLER_36_124
*1215 FILLER_36_132
*1216 FILLER_36_141
*1217 FILLER_36_153
*1218 FILLER_36_165
*1219 FILLER_36_177
*1220 FILLER_36_189
*1221 FILLER_36_195
*1222 FILLER_36_197
*1223 FILLER_36_209
*1224 FILLER_36_22
*1225 FILLER_36_221
*1226 FILLER_36_233
*1227 FILLER_36_245
*1228 FILLER_36_251
*1229 FILLER_36_253
*1230 FILLER_36_265
*1231 FILLER_36_277
*1232 FILLER_36_289
*1233 FILLER_36_29
*1234 FILLER_36_297
*1235 FILLER_36_38
*1236 FILLER_36_45
*1237 FILLER_36_56
*1238 FILLER_36_62
*1239 FILLER_36_69
*1240 FILLER_36_80
*1241 FILLER_36_85
*1242 FILLER_36_90
*1243 FILLER_37_101
*1244 FILLER_37_108
*1245 FILLER_37_113
*1246 FILLER_37_12
*1247 FILLER_37_125
*1248 FILLER_37_135
*1249 FILLER_37_147
*1250 FILLER_37_159
*1251 FILLER_37_167
*1252 FILLER_37_169
*1253 FILLER_37_181
*1254 FILLER_37_193
*1255 FILLER_37_205
*1256 FILLER_37_217
*1257 FILLER_37_223
*1258 FILLER_37_225
*1259 FILLER_37_237
*1260 FILLER_37_249
*1261 FILLER_37_261
*1262 FILLER_37_273
*1263 FILLER_37_279
*1264 FILLER_37_281
*1265 FILLER_37_293
*1266 FILLER_37_3
*1267 FILLER_37_40
*1268 FILLER_37_50
*1269 FILLER_37_57
*1270 FILLER_37_66
*1271 FILLER_37_90
*1272 FILLER_38_118
*1273 FILLER_38_122
*1274 FILLER_38_126
*1275 FILLER_38_136
*1276 FILLER_38_144
*1277 FILLER_38_156
*1278 FILLER_38_168
*1279 FILLER_38_17
*1280 FILLER_38_180
*1281 FILLER_38_192
*1282 FILLER_38_197
*1283 FILLER_38_209
*1284 FILLER_38_221
*1285 FILLER_38_233
*1286 FILLER_38_24
*1287 FILLER_38_245
*1288 FILLER_38_251
*1289 FILLER_38_253
*1290 FILLER_38_265
*1291 FILLER_38_277
*1292 FILLER_38_289
*1293 FILLER_38_29
*1294 FILLER_38_297
*1295 FILLER_38_53
*1296 FILLER_38_6
*1297 FILLER_38_66
*1298 FILLER_38_78
*1299 FILLER_38_94
*1300 FILLER_39_109
*1301 FILLER_39_120
*1302 FILLER_39_134
*1303 FILLER_39_146
*1304 FILLER_39_158
*1305 FILLER_39_166
*1306 FILLER_39_169
*1307 FILLER_39_181
*1308 FILLER_39_193
*1309 FILLER_39_205
*1310 FILLER_39_217
*1311 FILLER_39_223
*1312 FILLER_39_225
*1313 FILLER_39_237
*1314 FILLER_39_249
*1315 FILLER_39_261
*1316 FILLER_39_273
*1317 FILLER_39_279
*1318 FILLER_39_281
*1319 FILLER_39_293
*1320 FILLER_39_3
*1321 FILLER_39_32
*1322 FILLER_39_40
*1323 FILLER_39_47
*1324 FILLER_39_55
*1325 FILLER_39_60
*1326 FILLER_39_64
*1327 FILLER_39_85
*1328 FILLER_39_97
*1329 FILLER_3_105
*1330 FILLER_3_111
*1331 FILLER_3_113
*1332 FILLER_3_125
*1333 FILLER_3_137
*1334 FILLER_3_149
*1335 FILLER_3_15
*1336 FILLER_3_161
*1337 FILLER_3_167
*1338 FILLER_3_169
*1339 FILLER_3_181
*1340 FILLER_3_193
*1341 FILLER_3_205
*1342 FILLER_3_217
*1343 FILLER_3_223
*1344 FILLER_3_225
*1345 FILLER_3_237
*1346 FILLER_3_249
*1347 FILLER_3_261
*1348 FILLER_3_27
*1349 FILLER_3_273
*1350 FILLER_3_279
*1351 FILLER_3_281
*1352 FILLER_3_293
*1353 FILLER_3_3
*1354 FILLER_3_39
*1355 FILLER_3_51
*1356 FILLER_3_55
*1357 FILLER_3_57
*1358 FILLER_3_69
*1359 FILLER_3_81
*1360 FILLER_3_93
*1361 FILLER_40_118
*1362 FILLER_40_124
*1363 FILLER_40_132
*1364 FILLER_40_141
*1365 FILLER_40_153
*1366 FILLER_40_165
*1367 FILLER_40_177
*1368 FILLER_40_189
*1369 FILLER_40_195
*1370 FILLER_40_197
*1371 FILLER_40_209
*1372 FILLER_40_221
*1373 FILLER_40_233
*1374 FILLER_40_24
*1375 FILLER_40_245
*1376 FILLER_40_251
*1377 FILLER_40_253
*1378 FILLER_40_265
*1379 FILLER_40_277
*1380 FILLER_40_289
*1381 FILLER_40_29
*1382 FILLER_40_297
*1383 FILLER_40_3
*1384 FILLER_40_50
*1385 FILLER_40_58
*1386 FILLER_40_80
*1387 FILLER_40_85
*1388 FILLER_40_94
*1389 FILLER_41_106
*1390 FILLER_41_113
*1391 FILLER_41_121
*1392 FILLER_41_132
*1393 FILLER_41_144
*1394 FILLER_41_156
*1395 FILLER_41_169
*1396 FILLER_41_181
*1397 FILLER_41_193
*1398 FILLER_41_205
*1399 FILLER_41_217
*1400 FILLER_41_223
*1401 FILLER_41_225
*1402 FILLER_41_237
*1403 FILLER_41_249
*1404 FILLER_41_261
*1405 FILLER_41_27
*1406 FILLER_41_273
*1407 FILLER_41_279
*1408 FILLER_41_281
*1409 FILLER_41_293
*1410 FILLER_41_3
*1411 FILLER_41_51
*1412 FILLER_41_55
*1413 FILLER_41_57
*1414 FILLER_41_64
*1415 FILLER_41_72
*1416 FILLER_41_93
*1417 FILLER_42_118
*1418 FILLER_42_130
*1419 FILLER_42_138
*1420 FILLER_42_141
*1421 FILLER_42_153
*1422 FILLER_42_16
*1423 FILLER_42_165
*1424 FILLER_42_177
*1425 FILLER_42_189
*1426 FILLER_42_195
*1427 FILLER_42_197
*1428 FILLER_42_20
*1429 FILLER_42_209
*1430 FILLER_42_221
*1431 FILLER_42_233
*1432 FILLER_42_24
*1433 FILLER_42_245
*1434 FILLER_42_251
*1435 FILLER_42_253
*1436 FILLER_42_265
*1437 FILLER_42_277
*1438 FILLER_42_289
*1439 FILLER_42_29
*1440 FILLER_42_297
*1441 FILLER_42_41
*1442 FILLER_42_65
*1443 FILLER_42_72
*1444 FILLER_42_79
*1445 FILLER_42_83
*1446 FILLER_42_9
*1447 FILLER_42_94
*1448 FILLER_43_103
*1449 FILLER_43_111
*1450 FILLER_43_113
*1451 FILLER_43_125
*1452 FILLER_43_137
*1453 FILLER_43_149
*1454 FILLER_43_161
*1455 FILLER_43_167
*1456 FILLER_43_169
*1457 FILLER_43_181
*1458 FILLER_43_193
*1459 FILLER_43_205
*1460 FILLER_43_217
*1461 FILLER_43_223
*1462 FILLER_43_225
*1463 FILLER_43_237
*1464 FILLER_43_249
*1465 FILLER_43_261
*1466 FILLER_43_273
*1467 FILLER_43_279
*1468 FILLER_43_281
*1469 FILLER_43_293
*1470 FILLER_43_3
*1471 FILLER_43_33
*1472 FILLER_43_45
*1473 FILLER_43_53
*1474 FILLER_43_57
*1475 FILLER_43_68
*1476 FILLER_43_9
*1477 FILLER_43_92
*1478 FILLER_44_100
*1479 FILLER_44_112
*1480 FILLER_44_12
*1481 FILLER_44_124
*1482 FILLER_44_136
*1483 FILLER_44_141
*1484 FILLER_44_153
*1485 FILLER_44_165
*1486 FILLER_44_177
*1487 FILLER_44_189
*1488 FILLER_44_19
*1489 FILLER_44_195
*1490 FILLER_44_197
*1491 FILLER_44_209
*1492 FILLER_44_221
*1493 FILLER_44_233
*1494 FILLER_44_245
*1495 FILLER_44_251
*1496 FILLER_44_253
*1497 FILLER_44_265
*1498 FILLER_44_27
*1499 FILLER_44_277
*1500 FILLER_44_289
*1501 FILLER_44_29
*1502 FILLER_44_297
*1503 FILLER_44_3
*1504 FILLER_44_35
*1505 FILLER_44_56
*1506 FILLER_44_68
*1507 FILLER_44_72
*1508 FILLER_44_76
*1509 FILLER_44_88
*1510 FILLER_45_105
*1511 FILLER_45_111
*1512 FILLER_45_113
*1513 FILLER_45_125
*1514 FILLER_45_137
*1515 FILLER_45_149
*1516 FILLER_45_161
*1517 FILLER_45_167
*1518 FILLER_45_169
*1519 FILLER_45_181
*1520 FILLER_45_193
*1521 FILLER_45_205
*1522 FILLER_45_217
*1523 FILLER_45_223
*1524 FILLER_45_225
*1525 FILLER_45_237
*1526 FILLER_45_249
*1527 FILLER_45_261
*1528 FILLER_45_273
*1529 FILLER_45_279
*1530 FILLER_45_281
*1531 FILLER_45_293
*1532 FILLER_45_3
*1533 FILLER_45_32
*1534 FILLER_45_44
*1535 FILLER_45_57
*1536 FILLER_45_69
*1537 FILLER_45_81
*1538 FILLER_45_93
*1539 FILLER_46_109
*1540 FILLER_46_121
*1541 FILLER_46_133
*1542 FILLER_46_139
*1543 FILLER_46_141
*1544 FILLER_46_153
*1545 FILLER_46_165
*1546 FILLER_46_177
*1547 FILLER_46_189
*1548 FILLER_46_195
*1549 FILLER_46_197
*1550 FILLER_46_209
*1551 FILLER_46_221
*1552 FILLER_46_233
*1553 FILLER_46_24
*1554 FILLER_46_245
*1555 FILLER_46_251
*1556 FILLER_46_253
*1557 FILLER_46_265
*1558 FILLER_46_277
*1559 FILLER_46_289
*1560 FILLER_46_297
*1561 FILLER_46_3
*1562 FILLER_46_32
*1563 FILLER_46_44
*1564 FILLER_46_56
*1565 FILLER_46_68
*1566 FILLER_46_80
*1567 FILLER_46_85
*1568 FILLER_46_97
*1569 FILLER_47_105
*1570 FILLER_47_111
*1571 FILLER_47_113
*1572 FILLER_47_125
*1573 FILLER_47_137
*1574 FILLER_47_149
*1575 FILLER_47_161
*1576 FILLER_47_167
*1577 FILLER_47_169
*1578 FILLER_47_181
*1579 FILLER_47_193
*1580 FILLER_47_205
*1581 FILLER_47_217
*1582 FILLER_47_223
*1583 FILLER_47_225
*1584 FILLER_47_237
*1585 FILLER_47_249
*1586 FILLER_47_261
*1587 FILLER_47_273
*1588 FILLER_47_279
*1589 FILLER_47_281
*1590 FILLER_47_29
*1591 FILLER_47_293
*1592 FILLER_47_3
*1593 FILLER_47_41
*1594 FILLER_47_53
*1595 FILLER_47_57
*1596 FILLER_47_69
*1597 FILLER_47_81
*1598 FILLER_47_93
*1599 FILLER_48_10
*1600 FILLER_48_109
*1601 FILLER_48_121
*1602 FILLER_48_133
*1603 FILLER_48_139
*1604 FILLER_48_141
*1605 FILLER_48_153
*1606 FILLER_48_165
*1607 FILLER_48_177
*1608 FILLER_48_189
*1609 FILLER_48_195
*1610 FILLER_48_197
*1611 FILLER_48_209
*1612 FILLER_48_22
*1613 FILLER_48_221
*1614 FILLER_48_233
*1615 FILLER_48_245
*1616 FILLER_48_251
*1617 FILLER_48_253
*1618 FILLER_48_265
*1619 FILLER_48_277
*1620 FILLER_48_289
*1621 FILLER_48_29
*1622 FILLER_48_297
*1623 FILLER_48_3
*1624 FILLER_48_41
*1625 FILLER_48_53
*1626 FILLER_48_65
*1627 FILLER_48_77
*1628 FILLER_48_83
*1629 FILLER_48_85
*1630 FILLER_48_97
*1631 FILLER_49_105
*1632 FILLER_49_111
*1633 FILLER_49_113
*1634 FILLER_49_125
*1635 FILLER_49_137
*1636 FILLER_49_149
*1637 FILLER_49_161
*1638 FILLER_49_167
*1639 FILLER_49_169
*1640 FILLER_49_181
*1641 FILLER_49_193
*1642 FILLER_49_205
*1643 FILLER_49_217
*1644 FILLER_49_223
*1645 FILLER_49_225
*1646 FILLER_49_237
*1647 FILLER_49_249
*1648 FILLER_49_261
*1649 FILLER_49_27
*1650 FILLER_49_273
*1651 FILLER_49_279
*1652 FILLER_49_281
*1653 FILLER_49_293
*1654 FILLER_49_3
*1655 FILLER_49_39
*1656 FILLER_49_51