*SPEF "ieee 1481-1999"
*DESIGN "yubex_egg_timer"
*DATE "11:11:11 Fri 11 11, 1111"
*VENDOR "OpenRCX"
*PROGRAM "Parallel Extraction"
*VERSION "1.0"
*DESIGN_FLOW "NAME_SCOPE LOCAL" "PIN_CAP NONE"
*DIVIDER /
*DELIMITER :
*BUS_DELIMITER []
*T_UNIT 1 NS
*C_UNIT 1 PF
*R_UNIT 1 OHM
*L_UNIT 1 HENRY

*NAME_MAP
*1 io_in[0]
*2 io_in[1]
*3 io_in[2]
*4 io_in[3]
*5 io_in[4]
*6 io_in[5]
*7 io_in[6]
*8 io_in[7]
*9 io_out[0]
*10 io_out[1]
*11 io_out[2]
*12 net8
*13 io_out[4]
*14 io_out[5]
*15 io_out[6]
*16 io_out[7]
*19 _000_
*20 _001_
*21 _002_
*22 _003_
*23 _004_
*24 _005_
*25 _006_
*26 _007_
*27 _008_
*28 _009_
*29 _010_
*30 _011_
*31 _012_
*32 _013_
*33 _014_
*34 _015_
*35 _016_
*36 _017_
*37 _018_
*38 _019_
*39 _020_
*40 _021_
*41 _022_
*42 _023_
*43 _024_
*44 _025_
*45 _026_
*46 _027_
*47 _028_
*48 _029_
*49 _030_
*50 _031_
*51 _032_
*52 _033_
*53 _034_
*54 _035_
*55 _036_
*56 _037_
*57 _038_
*58 _039_
*59 _040_
*60 _041_
*61 _042_
*62 _043_
*63 _044_
*64 _045_
*65 _046_
*66 _047_
*67 _048_
*68 _049_
*69 _050_
*70 _051_
*71 _052_
*72 _053_
*73 _054_
*74 _055_
*75 _056_
*76 _057_
*77 _058_
*78 _059_
*79 _060_
*80 _061_
*81 _062_
*82 _063_
*83 _064_
*84 _065_
*85 _066_
*86 _067_
*87 _068_
*88 _069_
*89 _070_
*90 _071_
*91 _072_
*92 _073_
*93 _074_
*94 _075_
*95 _076_
*96 _077_
*97 _078_
*98 _079_
*99 _080_
*100 _081_
*101 _082_
*102 _083_
*103 _084_
*104 _085_
*105 _086_
*106 _087_
*107 _088_
*108 _089_
*109 _090_
*110 _091_
*111 _092_
*112 _093_
*113 _094_
*114 _095_
*115 _096_
*116 _097_
*117 _098_
*118 _099_
*119 _100_
*120 _101_
*121 _102_
*122 _103_
*123 _104_
*124 _105_
*125 _106_
*126 _107_
*127 _108_
*128 _109_
*129 _110_
*130 _111_
*131 _112_
*132 _113_
*133 _114_
*134 _115_
*135 _116_
*136 _117_
*137 _118_
*138 _119_
*139 _120_
*140 _121_
*141 _122_
*142 _123_
*143 _124_
*144 _125_
*145 _126_
*146 _127_
*147 _128_
*148 _129_
*149 _130_
*150 _131_
*151 _132_
*152 _133_
*153 _134_
*154 _135_
*155 _136_
*156 _137_
*157 _138_
*158 _139_
*159 _140_
*160 _141_
*161 _142_
*162 _143_
*163 _144_
*164 _145_
*165 _146_
*166 _147_
*167 _148_
*168 _149_
*169 _150_
*170 _151_
*171 _152_
*172 _153_
*173 _154_
*174 _155_
*175 _156_
*176 _157_
*177 _158_
*178 _159_
*179 _160_
*180 _161_
*181 _162_
*182 _163_
*183 _164_
*184 _165_
*185 _166_
*186 _167_
*187 _168_
*188 _169_
*189 _170_
*190 _171_
*191 _172_
*192 _173_
*193 clk_cycle_cnt\[0\]
*194 clk_cycle_cnt\[10\]
*195 clk_cycle_cnt\[11\]
*196 clk_cycle_cnt\[12\]
*197 clk_cycle_cnt\[13\]
*198 clk_cycle_cnt\[1\]
*199 clk_cycle_cnt\[2\]
*200 clk_cycle_cnt\[3\]
*201 clk_cycle_cnt\[4\]
*202 clk_cycle_cnt\[5\]
*203 clk_cycle_cnt\[6\]
*204 clk_cycle_cnt\[7\]
*205 clk_cycle_cnt\[8\]
*206 clk_cycle_cnt\[9\]
*207 clknet_0_io_in[0]
*208 clknet_2_0__leaf_io_in[0]
*209 clknet_2_1__leaf_io_in[0]
*210 clknet_2_2__leaf_io_in[0]
*211 clknet_2_3__leaf_io_in[0]
*212 minute_cnt\[0\]
*213 minute_cnt\[1\]
*214 minute_cnt\[2\]
*215 minute_cnt\[3\]
*216 minute_cnt\[4\]
*217 net1
*218 net2
*219 net3
*220 net4
*221 net5
*222 net6
*223 net7
*224 second_cnt\[0\]
*225 second_cnt\[1\]
*226 second_cnt\[2\]
*227 second_cnt\[3\]
*228 second_cnt\[4\]
*229 second_cnt\[5\]
*230 state\[0\]
*231 state\[1\]
*232 FILLER_0_109
*233 FILLER_0_113
*234 FILLER_0_125
*235 FILLER_0_137
*236 FILLER_0_141
*237 FILLER_0_153
*238 FILLER_0_165
*239 FILLER_0_169
*240 FILLER_0_181
*241 FILLER_0_193
*242 FILLER_0_197
*243 FILLER_0_209
*244 FILLER_0_221
*245 FILLER_0_225
*246 FILLER_0_237
*247 FILLER_0_24
*248 FILLER_0_249
*249 FILLER_0_253
*250 FILLER_0_265
*251 FILLER_0_277
*252 FILLER_0_281
*253 FILLER_0_293
*254 FILLER_0_3
*255 FILLER_0_49
*256 FILLER_0_55
*257 FILLER_0_57
*258 FILLER_0_69
*259 FILLER_0_81
*260 FILLER_0_85
*261 FILLER_0_97
*262 FILLER_10_109
*263 FILLER_10_121
*264 FILLER_10_133
*265 FILLER_10_139
*266 FILLER_10_141
*267 FILLER_10_153
*268 FILLER_10_165
*269 FILLER_10_177
*270 FILLER_10_189
*271 FILLER_10_195
*272 FILLER_10_197
*273 FILLER_10_209
*274 FILLER_10_221
*275 FILLER_10_233
*276 FILLER_10_24
*277 FILLER_10_245
*278 FILLER_10_251
*279 FILLER_10_253
*280 FILLER_10_265
*281 FILLER_10_277
*282 FILLER_10_289
*283 FILLER_10_29
*284 FILLER_10_297
*285 FILLER_10_37
*286 FILLER_10_59
*287 FILLER_10_71
*288 FILLER_10_83
*289 FILLER_10_85
*290 FILLER_10_97
*291 FILLER_11_102
*292 FILLER_11_11
*293 FILLER_11_110
*294 FILLER_11_113
*295 FILLER_11_125
*296 FILLER_11_137
*297 FILLER_11_149
*298 FILLER_11_161
*299 FILLER_11_167
*300 FILLER_11_169
*301 FILLER_11_181
*302 FILLER_11_193
*303 FILLER_11_205
*304 FILLER_11_217
*305 FILLER_11_223
*306 FILLER_11_225
*307 FILLER_11_237
*308 FILLER_11_249
*309 FILLER_11_261
*310 FILLER_11_273
*311 FILLER_11_279
*312 FILLER_11_281
*313 FILLER_11_293
*314 FILLER_11_3
*315 FILLER_11_35
*316 FILLER_11_47
*317 FILLER_11_55
*318 FILLER_11_78
*319 FILLER_11_90
*320 FILLER_12_105
*321 FILLER_12_117
*322 FILLER_12_129
*323 FILLER_12_137
*324 FILLER_12_141
*325 FILLER_12_153
*326 FILLER_12_165
*327 FILLER_12_177
*328 FILLER_12_189
*329 FILLER_12_195
*330 FILLER_12_197
*331 FILLER_12_209
*332 FILLER_12_221
*333 FILLER_12_233
*334 FILLER_12_24
*335 FILLER_12_245
*336 FILLER_12_251
*337 FILLER_12_253
*338 FILLER_12_265
*339 FILLER_12_277
*340 FILLER_12_289
*341 FILLER_12_29
*342 FILLER_12_297
*343 FILLER_12_3
*344 FILLER_12_37
*345 FILLER_12_60
*346 FILLER_12_66
*347 FILLER_12_70
*348 FILLER_12_77
*349 FILLER_12_83
*350 FILLER_12_85
*351 FILLER_12_89
*352 FILLER_12_93
*353 FILLER_13_101
*354 FILLER_13_109
*355 FILLER_13_113
*356 FILLER_13_125
*357 FILLER_13_137
*358 FILLER_13_149
*359 FILLER_13_161
*360 FILLER_13_167
*361 FILLER_13_169
*362 FILLER_13_181
*363 FILLER_13_193
*364 FILLER_13_205
*365 FILLER_13_217
*366 FILLER_13_223
*367 FILLER_13_225
*368 FILLER_13_237
*369 FILLER_13_24
*370 FILLER_13_249
*371 FILLER_13_261
*372 FILLER_13_273
*373 FILLER_13_279
*374 FILLER_13_281
*375 FILLER_13_293
*376 FILLER_13_36
*377 FILLER_13_48
*378 FILLER_13_57
*379 FILLER_13_63
*380 FILLER_13_84
*381 FILLER_14_109
*382 FILLER_14_121
*383 FILLER_14_133
*384 FILLER_14_139
*385 FILLER_14_141
*386 FILLER_14_153
*387 FILLER_14_165
*388 FILLER_14_177
*389 FILLER_14_189
*390 FILLER_14_195
*391 FILLER_14_197
*392 FILLER_14_209
*393 FILLER_14_221
*394 FILLER_14_233
*395 FILLER_14_24
*396 FILLER_14_245
*397 FILLER_14_251
*398 FILLER_14_253
*399 FILLER_14_265
*400 FILLER_14_277
*401 FILLER_14_289
*402 FILLER_14_29
*403 FILLER_14_297
*404 FILLER_14_3
*405 FILLER_14_37
*406 FILLER_14_59
*407 FILLER_14_65
*408 FILLER_14_73
*409 FILLER_14_81
*410 FILLER_14_85
*411 FILLER_14_97
*412 FILLER_15_106
*413 FILLER_15_116
*414 FILLER_15_128
*415 FILLER_15_140
*416 FILLER_15_152
*417 FILLER_15_164
*418 FILLER_15_169
*419 FILLER_15_181
*420 FILLER_15_193
*421 FILLER_15_205
*422 FILLER_15_217
*423 FILLER_15_223
*424 FILLER_15_225
*425 FILLER_15_237
*426 FILLER_15_249
*427 FILLER_15_26
*428 FILLER_15_261
*429 FILLER_15_273
*430 FILLER_15_279
*431 FILLER_15_281
*432 FILLER_15_293
*433 FILLER_15_30
*434 FILLER_15_52
*435 FILLER_15_57
*436 FILLER_15_65
*437 FILLER_15_70
*438 FILLER_15_82
*439 FILLER_15_94
*440 FILLER_16_106
*441 FILLER_16_118
*442 FILLER_16_130
*443 FILLER_16_138
*444 FILLER_16_141
*445 FILLER_16_153
*446 FILLER_16_165
*447 FILLER_16_177
*448 FILLER_16_189
*449 FILLER_16_195
*450 FILLER_16_197
*451 FILLER_16_209
*452 FILLER_16_221
*453 FILLER_16_233
*454 FILLER_16_24
*455 FILLER_16_245
*456 FILLER_16_251
*457 FILLER_16_253
*458 FILLER_16_265
*459 FILLER_16_277
*460 FILLER_16_289
*461 FILLER_16_297
*462 FILLER_16_52
*463 FILLER_16_77
*464 FILLER_16_83
*465 FILLER_16_85
*466 FILLER_16_97
*467 FILLER_17_107
*468 FILLER_17_111
*469 FILLER_17_113
*470 FILLER_17_125
*471 FILLER_17_137
*472 FILLER_17_149
*473 FILLER_17_15
*474 FILLER_17_161
*475 FILLER_17_167
*476 FILLER_17_169
*477 FILLER_17_181
*478 FILLER_17_193
*479 FILLER_17_205
*480 FILLER_17_217
*481 FILLER_17_223
*482 FILLER_17_225
*483 FILLER_17_237
*484 FILLER_17_249
*485 FILLER_17_261
*486 FILLER_17_273
*487 FILLER_17_279
*488 FILLER_17_281
*489 FILLER_17_293
*490 FILLER_17_3
*491 FILLER_17_36
*492 FILLER_17_48
*493 FILLER_17_57
*494 FILLER_17_64
*495 FILLER_17_73
*496 FILLER_17_83
*497 FILLER_17_95
*498 FILLER_18_109
*499 FILLER_18_121
*500 FILLER_18_13
*501 FILLER_18_133
*502 FILLER_18_139
*503 FILLER_18_141
*504 FILLER_18_153
*505 FILLER_18_165
*506 FILLER_18_177
*507 FILLER_18_189
*508 FILLER_18_195
*509 FILLER_18_197
*510 FILLER_18_209
*511 FILLER_18_221
*512 FILLER_18_233
*513 FILLER_18_245
*514 FILLER_18_25
*515 FILLER_18_251
*516 FILLER_18_253
*517 FILLER_18_265
*518 FILLER_18_277
*519 FILLER_18_289
*520 FILLER_18_29
*521 FILLER_18_297
*522 FILLER_18_41
*523 FILLER_18_53
*524 FILLER_18_61
*525 FILLER_18_72
*526 FILLER_18_79
*527 FILLER_18_83
*528 FILLER_18_85
*529 FILLER_18_97
*530 FILLER_19_108
*531 FILLER_19_113
*532 FILLER_19_125
*533 FILLER_19_137
*534 FILLER_19_149
*535 FILLER_19_15
*536 FILLER_19_161
*537 FILLER_19_167
*538 FILLER_19_169
*539 FILLER_19_181
*540 FILLER_19_193
*541 FILLER_19_205
*542 FILLER_19_217
*543 FILLER_19_223
*544 FILLER_19_225
*545 FILLER_19_237
*546 FILLER_19_249
*547 FILLER_19_261
*548 FILLER_19_27
*549 FILLER_19_273
*550 FILLER_19_279
*551 FILLER_19_281
*552 FILLER_19_293
*553 FILLER_19_3
*554 FILLER_19_39
*555 FILLER_19_51
*556 FILLER_19_55
*557 FILLER_19_57
*558 FILLER_19_62
*559 FILLER_19_70
*560 FILLER_19_84
*561 FILLER_19_96
*562 FILLER_1_105
*563 FILLER_1_111
*564 FILLER_1_113
*565 FILLER_1_125
*566 FILLER_1_137
*567 FILLER_1_149
*568 FILLER_1_161
*569 FILLER_1_167
*570 FILLER_1_169
*571 FILLER_1_181
*572 FILLER_1_193
*573 FILLER_1_205
*574 FILLER_1_217
*575 FILLER_1_223
*576 FILLER_1_225
*577 FILLER_1_23
*578 FILLER_1_237
*579 FILLER_1_249
*580 FILLER_1_261
*581 FILLER_1_273
*582 FILLER_1_279
*583 FILLER_1_281
*584 FILLER_1_293
*585 FILLER_1_52
*586 FILLER_1_57
*587 FILLER_1_69
*588 FILLER_1_81
*589 FILLER_1_93
*590 FILLER_20_111
*591 FILLER_20_123
*592 FILLER_20_135
*593 FILLER_20_139
*594 FILLER_20_141
*595 FILLER_20_153
*596 FILLER_20_165
*597 FILLER_20_177
*598 FILLER_20_18
*599 FILLER_20_189
*600 FILLER_20_195
*601 FILLER_20_197
*602 FILLER_20_209
*603 FILLER_20_221
*604 FILLER_20_233
*605 FILLER_20_245
*606 FILLER_20_251
*607 FILLER_20_253
*608 FILLER_20_26
*609 FILLER_20_265
*610 FILLER_20_277
*611 FILLER_20_289
*612 FILLER_20_29
*613 FILLER_20_297
*614 FILLER_20_41
*615 FILLER_20_53
*616 FILLER_20_6
*617 FILLER_20_60
*618 FILLER_20_69
*619 FILLER_20_77
*620 FILLER_20_83
*621 FILLER_20_85
*622 FILLER_20_99
*623 FILLER_21_100
*624 FILLER_21_113
*625 FILLER_21_125
*626 FILLER_21_137
*627 FILLER_21_149
*628 FILLER_21_15
*629 FILLER_21_161
*630 FILLER_21_167
*631 FILLER_21_169
*632 FILLER_21_181
*633 FILLER_21_193
*634 FILLER_21_205
*635 FILLER_21_217
*636 FILLER_21_223
*637 FILLER_21_225
*638 FILLER_21_237
*639 FILLER_21_249
*640 FILLER_21_261
*641 FILLER_21_27
*642 FILLER_21_273
*643 FILLER_21_279
*644 FILLER_21_281
*645 FILLER_21_293
*646 FILLER_21_3
*647 FILLER_21_39
*648 FILLER_21_46
*649 FILLER_21_54
*650 FILLER_21_57
*651 FILLER_21_64
*652 FILLER_21_71
*653 FILLER_21_82
*654 FILLER_21_94
*655 FILLER_22_110
*656 FILLER_22_122
*657 FILLER_22_134
*658 FILLER_22_141
*659 FILLER_22_153
*660 FILLER_22_165
*661 FILLER_22_177
*662 FILLER_22_189
*663 FILLER_22_19
*664 FILLER_22_195
*665 FILLER_22_197
*666 FILLER_22_209
*667 FILLER_22_221
*668 FILLER_22_233
*669 FILLER_22_245
*670 FILLER_22_251
*671 FILLER_22_253
*672 FILLER_22_265
*673 FILLER_22_27
*674 FILLER_22_277
*675 FILLER_22_289
*676 FILLER_22_29
*677 FILLER_22_297
*678 FILLER_22_3
*679 FILLER_22_37
*680 FILLER_22_49
*681 FILLER_22_58
*682 FILLER_22_7
*683 FILLER_22_75
*684 FILLER_22_83
*685 FILLER_22_85
*686 FILLER_22_89
*687 FILLER_22_98
*688 FILLER_23_104
*689 FILLER_23_11
*690 FILLER_23_113
*691 FILLER_23_125
*692 FILLER_23_137
*693 FILLER_23_149
*694 FILLER_23_161
*695 FILLER_23_167
*696 FILLER_23_169
*697 FILLER_23_181
*698 FILLER_23_193
*699 FILLER_23_205
*700 FILLER_23_217
*701 FILLER_23_223
*702 FILLER_23_225
*703 FILLER_23_237
*704 FILLER_23_249
*705 FILLER_23_25
*706 FILLER_23_261
*707 FILLER_23_273
*708 FILLER_23_279
*709 FILLER_23_281
*710 FILLER_23_293
*711 FILLER_23_3
*712 FILLER_23_37
*713 FILLER_23_45
*714 FILLER_23_53
*715 FILLER_23_66
*716 FILLER_23_75
*717 FILLER_23_83
*718 FILLER_23_90
*719 FILLER_23_96
*720 FILLER_24_105
*721 FILLER_24_117
*722 FILLER_24_129
*723 FILLER_24_137
*724 FILLER_24_141
*725 FILLER_24_153
*726 FILLER_24_165
*727 FILLER_24_177
*728 FILLER_24_18
*729 FILLER_24_189
*730 FILLER_24_195
*731 FILLER_24_197
*732 FILLER_24_209
*733 FILLER_24_221
*734 FILLER_24_233
*735 FILLER_24_245
*736 FILLER_24_251
*737 FILLER_24_253
*738 FILLER_24_26
*739 FILLER_24_265
*740 FILLER_24_277
*741 FILLER_24_289
*742 FILLER_24_297
*743 FILLER_24_33
*744 FILLER_24_45
*745 FILLER_24_54
*746 FILLER_24_6
*747 FILLER_24_61
*748 FILLER_24_68
*749 FILLER_24_72
*750 FILLER_24_80
*751 FILLER_24_85
*752 FILLER_24_98
*753 FILLER_25_100
*754 FILLER_25_107
*755 FILLER_25_111
*756 FILLER_25_113
*757 FILLER_25_125
*758 FILLER_25_137
*759 FILLER_25_149
*760 FILLER_25_15
*761 FILLER_25_161
*762 FILLER_25_167
*763 FILLER_25_169
*764 FILLER_25_181
*765 FILLER_25_193
*766 FILLER_25_205
*767 FILLER_25_217
*768 FILLER_25_223
*769 FILLER_25_225
*770 FILLER_25_237
*771 FILLER_25_249
*772 FILLER_25_26
*773 FILLER_25_261
*774 FILLER_25_273
*775 FILLER_25_279
*776 FILLER_25_281
*777 FILLER_25_293
*778 FILLER_25_3
*779 FILLER_25_32
*780 FILLER_25_36
*781 FILLER_25_42
*782 FILLER_25_52
*783 FILLER_25_57
*784 FILLER_25_66
*785 FILLER_25_75
*786 FILLER_25_81
*787 FILLER_25_9
*788 FILLER_25_90
*789 FILLER_26_109
*790 FILLER_26_121
*791 FILLER_26_133
*792 FILLER_26_139
*793 FILLER_26_141
*794 FILLER_26_153
*795 FILLER_26_165
*796 FILLER_26_177
*797 FILLER_26_189
*798 FILLER_26_195
*799 FILLER_26_197
*800 FILLER_26_209
*801 FILLER_26_21
*802 FILLER_26_221
*803 FILLER_26_233
*804 FILLER_26_245
*805 FILLER_26_251
*806 FILLER_26_253
*807 FILLER_26_265
*808 FILLER_26_27
*809 FILLER_26_277
*810 FILLER_26_289
*811 FILLER_26_29
*812 FILLER_26_297
*813 FILLER_26_3
*814 FILLER_26_41
*815 FILLER_26_45
*816 FILLER_26_58
*817 FILLER_26_72
*818 FILLER_26_76
*819 FILLER_26_80
*820 FILLER_26_85
*821 FILLER_26_9
*822 FILLER_26_97
*823 FILLER_27_10
*824 FILLER_27_106
*825 FILLER_27_113
*826 FILLER_27_125
*827 FILLER_27_137
*828 FILLER_27_149
*829 FILLER_27_161
*830 FILLER_27_167
*831 FILLER_27_169
*832 FILLER_27_18
*833 FILLER_27_181
*834 FILLER_27_193
*835 FILLER_27_205
*836 FILLER_27_217
*837 FILLER_27_223
*838 FILLER_27_225
*839 FILLER_27_237
*840 FILLER_27_249
*841 FILLER_27_261
*842 FILLER_27_273
*843 FILLER_27_279
*844 FILLER_27_28
*845 FILLER_27_281
*846 FILLER_27_293
*847 FILLER_27_3
*848 FILLER_27_32
*849 FILLER_27_36
*850 FILLER_27_43
*851 FILLER_27_52
*852 FILLER_27_57
*853 FILLER_27_61
*854 FILLER_27_72
*855 FILLER_27_84
*856 FILLER_27_90
*857 FILLER_27_97
*858 FILLER_28_104
*859 FILLER_28_116
*860 FILLER_28_128
*861 FILLER_28_141
*862 FILLER_28_153
*863 FILLER_28_165
*864 FILLER_28_17
*865 FILLER_28_177
*866 FILLER_28_189
*867 FILLER_28_195
*868 FILLER_28_197
*869 FILLER_28_209
*870 FILLER_28_221
*871 FILLER_28_233
*872 FILLER_28_24
*873 FILLER_28_245
*874 FILLER_28_251
*875 FILLER_28_253
*876 FILLER_28_265
*877 FILLER_28_277
*878 FILLER_28_289
*879 FILLER_28_29
*880 FILLER_28_297
*881 FILLER_28_37
*882 FILLER_28_45
*883 FILLER_28_52
*884 FILLER_28_6
*885 FILLER_28_60
*886 FILLER_28_67
*887 FILLER_28_79
*888 FILLER_28_83
*889 FILLER_28_88
*890 FILLER_29_106
*891 FILLER_29_11
*892 FILLER_29_113
*893 FILLER_29_125
*894 FILLER_29_137
*895 FILLER_29_149
*896 FILLER_29_161
*897 FILLER_29_167
*898 FILLER_29_169
*899 FILLER_29_181
*900 FILLER_29_193
*901 FILLER_29_205
*902 FILLER_29_21
*903 FILLER_29_217
*904 FILLER_29_223
*905 FILLER_29_225
*906 FILLER_29_237
*907 FILLER_29_249
*908 FILLER_29_261
*909 FILLER_29_273
*910 FILLER_29_279
*911 FILLER_29_281
*912 FILLER_29_29
*913 FILLER_29_293
*914 FILLER_29_3
*915 FILLER_29_40
*916 FILLER_29_51
*917 FILLER_29_55
*918 FILLER_29_64
*919 FILLER_29_7
*920 FILLER_29_73
*921 FILLER_29_79
*922 FILLER_29_85
*923 FILLER_29_94
*924 FILLER_2_109
*925 FILLER_2_121
*926 FILLER_2_133
*927 FILLER_2_139
*928 FILLER_2_141
*929 FILLER_2_153
*930 FILLER_2_165
*931 FILLER_2_177
*932 FILLER_2_189
*933 FILLER_2_195
*934 FILLER_2_197
*935 FILLER_2_209
*936 FILLER_2_221
*937 FILLER_2_233
*938 FILLER_2_24
*939 FILLER_2_245
*940 FILLER_2_251
*941 FILLER_2_253
*942 FILLER_2_265
*943 FILLER_2_277
*944 FILLER_2_289
*945 FILLER_2_29
*946 FILLER_2_297
*947 FILLER_2_37
*948 FILLER_2_59
*949 FILLER_2_71
*950 FILLER_2_83
*951 FILLER_2_85
*952 FILLER_2_97
*953 FILLER_30_102
*954 FILLER_30_11
*955 FILLER_30_114
*956 FILLER_30_126
*957 FILLER_30_138
*958 FILLER_30_141
*959 FILLER_30_153
*960 FILLER_30_165
*961 FILLER_30_17
*962 FILLER_30_177
*963 FILLER_30_189
*964 FILLER_30_195
*965 FILLER_30_197
*966 FILLER_30_209
*967 FILLER_30_221
*968 FILLER_30_233
*969 FILLER_30_24
*970 FILLER_30_245
*971 FILLER_30_251
*972 FILLER_30_253
*973 FILLER_30_265
*974 FILLER_30_277
*975 FILLER_30_289
*976 FILLER_30_29
*977 FILLER_30_297
*978 FILLER_30_3
*979 FILLER_30_33
*980 FILLER_30_44
*981 FILLER_30_55
*982 FILLER_30_62
*983 FILLER_30_72
*984 FILLER_30_80
*985 FILLER_30_95
*986 FILLER_31_108
*987 FILLER_31_11
*988 FILLER_31_116
*989 FILLER_31_128
*990 FILLER_31_140
*991 FILLER_31_152
*992 FILLER_31_164
*993 FILLER_31_169
*994 FILLER_31_17
*995 FILLER_31_181
*996 FILLER_31_193
*997 FILLER_31_205
*998 FILLER_31_217
*999 FILLER_31_223
*1000 FILLER_31_225
*1001 FILLER_31_237
*1002 FILLER_31_24
*1003 FILLER_31_249
*1004 FILLER_31_261
*1005 FILLER_31_273
*1006 FILLER_31_279
*1007 FILLER_31_281
*1008 FILLER_31_293
*1009 FILLER_31_3
*1010 FILLER_31_33
*1011 FILLER_31_41
*1012 FILLER_31_47
*1013 FILLER_31_55
*1014 FILLER_31_67
*1015 FILLER_31_73
*1016 FILLER_31_84
*1017 FILLER_31_98
*1018 FILLER_32_100
*1019 FILLER_32_106
*1020 FILLER_32_11
*1021 FILLER_32_111
*1022 FILLER_32_123
*1023 FILLER_32_135
*1024 FILLER_32_139
*1025 FILLER_32_141
*1026 FILLER_32_153
*1027 FILLER_32_165
*1028 FILLER_32_17
*1029 FILLER_32_177
*1030 FILLER_32_189
*1031 FILLER_32_195
*1032 FILLER_32_197
*1033 FILLER_32_209
*1034 FILLER_32_221
*1035 FILLER_32_233
*1036 FILLER_32_24
*1037 FILLER_32_245
*1038 FILLER_32_251
*1039 FILLER_32_253
*1040 FILLER_32_265
*1041 FILLER_32_277
*1042 FILLER_32_289
*1043 FILLER_32_29
*1044 FILLER_32_297
*1045 FILLER_32_3
*1046 FILLER_32_36
*1047 FILLER_32_45
*1048 FILLER_32_59
*1049 FILLER_32_72
*1050 FILLER_32_80
*1051 FILLER_32_85
*1052 FILLER_32_93
*1053 FILLER_33_101
*1054 FILLER_33_109
*1055 FILLER_33_113
*1056 FILLER_33_125
*1057 FILLER_33_137
*1058 FILLER_33_149
*1059 FILLER_33_16
*1060 FILLER_33_161
*1061 FILLER_33_167
*1062 FILLER_33_169
*1063 FILLER_33_181
*1064 FILLER_33_193
*1065 FILLER_33_205
*1066 FILLER_33_217
*1067 FILLER_33_223
*1068 FILLER_33_225
*1069 FILLER_33_237
*1070 FILLER_33_24
*1071 FILLER_33_249
*1072 FILLER_33_261
*1073 FILLER_33_273
*1074 FILLER_33_279
*1075 FILLER_33_281
*1076 FILLER_33_293
*1077 FILLER_33_3
*1078 FILLER_33_35
*1079 FILLER_33_45
*1080 FILLER_33_52
*1081 FILLER_33_63
*1082 FILLER_33_71
*1083 FILLER_33_77
*1084 FILLER_33_87
*1085 FILLER_33_94
*1086 FILLER_34_106
*1087 FILLER_34_11
*1088 FILLER_34_118
*1089 FILLER_34_125
*1090 FILLER_34_137
*1091 FILLER_34_141
*1092 FILLER_34_153
*1093 FILLER_34_165
*1094 FILLER_34_17
*1095 FILLER_34_177
*1096 FILLER_34_189
*1097 FILLER_34_195
*1098 FILLER_34_197
*1099 FILLER_34_209
*1100 FILLER_34_221
*1101 FILLER_34_233
*1102 FILLER_34_24
*1103 FILLER_34_245
*1104 FILLER_34_251
*1105 FILLER_34_253
*1106 FILLER_34_265
*1107 FILLER_34_277
*1108 FILLER_34_289
*1109 FILLER_34_29
*1110 FILLER_34_297
*1111 FILLER_34_3
*1112 FILLER_34_34
*1113 FILLER_34_45
*1114 FILLER_34_52
*1115 FILLER_34_56
*1116 FILLER_34_64
*1117 FILLER_34_70
*1118 FILLER_34_77
*1119 FILLER_34_83
*1120 FILLER_34_85
*1121 FILLER_34_89
*1122 FILLER_34_96
*1123 FILLER_35_107
*1124 FILLER_35_111
*1125 FILLER_35_113
*1126 FILLER_35_125
*1127 FILLER_35_137
*1128 FILLER_35_149
*1129 FILLER_35_15
*1130 FILLER_35_161
*1131 FILLER_35_167
*1132 FILLER_35_169
*1133 FILLER_35_181
*1134 FILLER_35_193
*1135 FILLER_35_20
*1136 FILLER_35_205
*1137 FILLER_35_217
*1138 FILLER_35_223
*1139 FILLER_35_225
*1140 FILLER_35_237
*1141 FILLER_35_249
*1142 FILLER_35_261
*1143 FILLER_35_273
*1144 FILLER_35_279
*1145 FILLER_35_28
*1146 FILLER_35_281
*1147 FILLER_35_293
*1148 FILLER_35_3
*1149 FILLER_35_32
*1150 FILLER_35_40
*1151 FILLER_35_52
*1152 FILLER_35_57
*1153 FILLER_35_62
*1154 FILLER_35_72
*1155 FILLER_35_86
*1156 FILLER_35_95
*1157 FILLER_36_102
*1158 FILLER_36_114
*1159 FILLER_36_126
*1160 FILLER_36_138
*1161 FILLER_36_141
*1162 FILLER_36_15
*1163 FILLER_36_153
*1164 FILLER_36_165
*1165 FILLER_36_177
*1166 FILLER_36_189
*1167 FILLER_36_195
*1168 FILLER_36_197
*1169 FILLER_36_209
*1170 FILLER_36_221
*1171 FILLER_36_233
*1172 FILLER_36_245
*1173 FILLER_36_251
*1174 FILLER_36_253
*1175 FILLER_36_265
*1176 FILLER_36_27
*1177 FILLER_36_277
*1178 FILLER_36_289
*1179 FILLER_36_29
*1180 FILLER_36_297
*1181 FILLER_36_3
*1182 FILLER_36_35
*1183 FILLER_36_43
*1184 FILLER_36_51
*1185 FILLER_36_55
*1186 FILLER_36_67
*1187 FILLER_36_78
*1188 FILLER_36_91
*1189 FILLER_36_95
*1190 FILLER_37_108
*1191 FILLER_37_116
*1192 FILLER_37_12
*1193 FILLER_37_128
*1194 FILLER_37_140
*1195 FILLER_37_152
*1196 FILLER_37_164
*1197 FILLER_37_169
*1198 FILLER_37_181
*1199 FILLER_37_193
*1200 FILLER_37_205
*1201 FILLER_37_217
*1202 FILLER_37_223
*1203 FILLER_37_225
*1204 FILLER_37_237
*1205 FILLER_37_24
*1206 FILLER_37_249
*1207 FILLER_37_261
*1208 FILLER_37_273
*1209 FILLER_37_279
*1210 FILLER_37_281
*1211 FILLER_37_293
*1212 FILLER_37_3
*1213 FILLER_37_36
*1214 FILLER_37_48
*1215 FILLER_37_60
*1216 FILLER_37_7
*1217 FILLER_37_72
*1218 FILLER_37_83
*1219 FILLER_37_92
*1220 FILLER_38_109
*1221 FILLER_38_121
*1222 FILLER_38_133
*1223 FILLER_38_139
*1224 FILLER_38_141
*1225 FILLER_38_15
*1226 FILLER_38_153
*1227 FILLER_38_165
*1228 FILLER_38_177
*1229 FILLER_38_189
*1230 FILLER_38_195
*1231 FILLER_38_197
*1232 FILLER_38_209
*1233 FILLER_38_221
*1234 FILLER_38_233
*1235 FILLER_38_245
*1236 FILLER_38_251
*1237 FILLER_38_253
*1238 FILLER_38_265
*1239 FILLER_38_27
*1240 FILLER_38_277
*1241 FILLER_38_289
*1242 FILLER_38_29
*1243 FILLER_38_297
*1244 FILLER_38_3
*1245 FILLER_38_37
*1246 FILLER_38_48
*1247 FILLER_38_60
*1248 FILLER_38_68
*1249 FILLER_38_77
*1250 FILLER_38_83
*1251 FILLER_38_85
*1252 FILLER_38_93
*1253 FILLER_38_99
*1254 FILLER_39_101
*1255 FILLER_39_108
*1256 FILLER_39_113
*1257 FILLER_39_125
*1258 FILLER_39_137
*1259 FILLER_39_149
*1260 FILLER_39_15
*1261 FILLER_39_161
*1262 FILLER_39_167
*1263 FILLER_39_169
*1264 FILLER_39_181
*1265 FILLER_39_193
*1266 FILLER_39_205
*1267 FILLER_39_217
*1268 FILLER_39_223
*1269 FILLER_39_225
*1270 FILLER_39_237
*1271 FILLER_39_249
*1272 FILLER_39_261
*1273 FILLER_39_27
*1274 FILLER_39_273
*1275 FILLER_39_279
*1276 FILLER_39_281
*1277 FILLER_39_293
*1278 FILLER_39_3
*1279 FILLER_39_39
*1280 FILLER_39_51
*1281 FILLER_39_55
*1282 FILLER_39_57
*1283 FILLER_39_61
*1284 FILLER_39_72
*1285 FILLER_39_84
*1286 FILLER_39_89
*1287 FILLER_3_105
*1288 FILLER_3_111
*1289 FILLER_3_113
*1290 FILLER_3_125
*1291 FILLER_3_137
*1292 FILLER_3_149
*1293 FILLER_3_161
*1294 FILLER_3_167
*1295 FILLER_3_169
*1296 FILLER_3_181
*1297 FILLER_3_193
*1298 FILLER_3_205
*1299 FILLER_3_217
*1300 FILLER_3_223
*1301 FILLER_3_225
*1302 FILLER_3_237
*1303 FILLER_3_249
*1304 FILLER_3_261
*1305 FILLER_3_27
*1306 FILLER_3_273
*1307 FILLER_3_279
*1308 FILLER_3_281
*1309 FILLER_3_293
*1310 FILLER_3_3
*1311 FILLER_3_52
*1312 FILLER_3_57
*1313 FILLER_3_81
*1314 FILLER_3_93
*1315 FILLER_40_111
*1316 FILLER_40_123
*1317 FILLER_40_135
*1318 FILLER_40_139
*1319 FILLER_40_141
*1320 FILLER_40_15
*1321 FILLER_40_153
*1322 FILLER_40_165
*1323 FILLER_40_177
*1324 FILLER_40_189
*1325 FILLER_40_195
*1326 FILLER_40_197
*1327 FILLER_40_209
*1328 FILLER_40_221
*1329 FILLER_40_233
*1330 FILLER_40_245
*1331 FILLER_40_251
*1332 FILLER_40_253
*1333 FILLER_40_265
*1334 FILLER_40_27
*1335 FILLER_40_277
*1336 FILLER_40_289
*1337 FILLER_40_29
*1338 FILLER_40_297
*1339 FILLER_40_3
*1340 FILLER_40_37
*1341 FILLER_40_46
*1342 FILLER_40_52
*1343 FILLER_40_63
*1344 FILLER_40_67
*1345 FILLER_40_76
*1346 FILLER_40_85
*1347 FILLER_40_99
*1348 FILLER_41_100
*1349 FILLER_41_108
*1350 FILLER_41_113
*1351 FILLER_41_125
*1352 FILLER_41_137
*1353 FILLER_41_149
*1354 FILLER_41_161
*1355 FILLER_41_167
*1356 FILLER_41_169
*1357 FILLER_41_181
*1358 FILLER_41_193
*1359 FILLER_41_205
*1360 FILLER_41_21
*1361 FILLER_41_217
*1362 FILLER_41_223
*1363 FILLER_41_225
*1364 FILLER_41_237
*1365 FILLER_41_249
*1366 FILLER_41_261
*1367 FILLER_41_273
*1368 FILLER_41_279
*1369 FILLER_41_281
*1370 FILLER_41_293
*1371 FILLER_41_3
*1372 FILLER_41_33
*1373 FILLER_41_45
*1374 FILLER_41_53
*1375 FILLER_41_61
*1376 FILLER_41_77
*1377 FILLER_41_88
*1378 FILLER_41_9
*1379 FILLER_42_101
*1380 FILLER_42_113
*1381 FILLER_42_125
*1382 FILLER_42_137
*1383 FILLER_42_141
*1384 FILLER_42_153
*1385 FILLER_42_165
*1386 FILLER_42_177
*1387 FILLER_42_18
*1388 FILLER_42_189
*1389 FILLER_42_195
*1390 FILLER_42_197
*1391 FILLER_42_209
*1392 FILLER_42_221
*1393 FILLER_42_233
*1394 FILLER_42_245
*1395 FILLER_42_251
*1396 FILLER_42_253
*1397 FILLER_42_26
*1398 FILLER_42_265
*1399 FILLER_42_277
*1400 FILLER_42_289
*1401 FILLER_42_29
*1402 FILLER_42_297
*1403 FILLER_42_41
*1404 FILLER_42_53
*1405 FILLER_42_6
*1406 FILLER_42_65
*1407 FILLER_42_79
*1408 FILLER_42_83
*1409 FILLER_42_85
*1410 FILLER_42_89
*1411 FILLER_43_105
*1412 FILLER_43_111
*1413 FILLER_43_113
*1414 FILLER_43_125
*1415 FILLER_43_137
*1416 FILLER_43_149
*1417 FILLER_43_15
*1418 FILLER_43_161
*1419 FILLER_43_167
*1420 FILLER_43_169
*1421 FILLER_43_181
*1422 FILLER_43_193
*1423 FILLER_43_205
*1424 FILLER_43_217
*1425 FILLER_43_223
*1426 FILLER_43_225
*1427 FILLER_43_237
*1428 FILLER_43_249
*1429 FILLER_43_261
*1430 FILLER_43_27
*1431 FILLER_43_273
*1432 FILLER_43_279
*1433 FILLER_43_281
*1434 FILLER_43_293
*1435 FILLER_43_3
*1436 FILLER_43_33
*1437 FILLER_43_37
*1438 FILLER_43_49
*1439 FILLER_43_55
*1440 FILLER_43_57
*1441 FILLER_43_69
*1442 FILLER_43_81
*1443 FILLER_43_93
*1444 FILLER_44_109
*1445 FILLER_44_117
*1446 FILLER_44_125
*1447 FILLER_44_137
*1448 FILLER_44_141
*1449 FILLER_44_15
*1450 FILLER_44_153
*1451 FILLER_44_165
*1452 FILLER_44_177
*1453 FILLER_44_189
*1454 FILLER_44_195
*1455 FILLER_44_197
*1456 FILLER_44_209
*1457 FILLER_44_221
*1458 FILLER_44_233
*1459 FILLER_44_245
*1460 FILLER_44_251
*1461 FILLER_44_253
*1462 FILLER_44_265
*1463 FILLER_44_27
*1464 FILLER_44_277
*1465 FILLER_44_289
*1466 FILLER_44_29
*1467 FILLER_44_297
*1468 FILLER_44_3
*1469 FILLER_44_41
*1470 FILLER_44_53
*1471 FILLER_44_59
*1472 FILLER_44_67
*1473 FILLER_44_73
*1474 FILLER_44_80
*1475 FILLER_44_85
*1476 FILLER_44_97
*1477 FILLER_45_105
*1478 FILLER_45_111
*1479 FILLER_45_113
*1480 FILLER_45_125
*1481 FILLER_45_137
*1482 FILLER_45_149
*1483 FILLER_45_15
*1484 FILLER_45_161
*1485 FILLER_45_167
*1486 FILLER_45_169
*1487 FILLER_45_181
*1488 FILLER_45_193
*1489 FILLER_45_205
*1490 FILLER_45_217
*1491 FILLER_45_223
*1492 FILLER_45_225
*1493 FILLER_45_237
*1494 FILLER_45_249
*1495 FILLER_45_261
*1496 FILLER_45_27
*1497 FILLER_45_273
*1498 FILLER_45_279
*1499 FILLER_45_281
*1500 FILLER_45_293
*1501 FILLER_45_3
*1502 FILLER_45_39
*1503 FILLER_45_51
*1504 FILLER_45_55
*1505 FILLER_45_57
*1506 FILLER_45_69
*1507 FILLER_45_81
*1508 FILLER_45_93
*1509 FILLER_46_109
*1510 FILLER_46_121
*1511 FILLER_46_133
*1512 FILLER_46_139
*1513 FILLER_46_141
*1514 FILLER_46_15
*1515 FILLER_46_153
*1516 FILLER_46_165
*1517 FILLER_46_177
*1518 FILLER_46_189
*1519 FILLER_46_195
*1520 FILLER_46_197
*1521 FILLER_46_209
*1522 FILLER_46_221
*1523 FILLER_46_233
*1524 FILLER_46_245
*1525 FILLER_46_251
*1526 FILLER_46_253
*1527 FILLER_46_265
*1528 FILLER_46_27
*1529 FILLER_46_277
*1530 FILLER_46_289
*1531 FILLER_46_29
*1532 FILLER_46_297
*1533 FILLER_46_3
*1534 FILLER_46_41
*1535 FILLER_46_53
*1536 FILLER_46_65
*1537 FILLER_46_77
*1538 FILLER_46_83
*1539 FILLER_46_85
*1540 FILLER_46_97
*1541 FILLER_47_105
*1542 FILLER_47_111
*1543 FILLER_47_113
*1544 FILLER_47_125
*1545 FILLER_47_137
*1546 FILLER_47_149
*1547 FILLER_47_161
*1548 FILLER_47_167
*1549 FILLER_47_169
*1550 FILLER_47_181
*1551 FILLER_47_193
*1552 FILLER_47_205
*1553 FILLER_47_21
*1554 FILLER_47_217
*1555 FILLER_47_223
*1556 FILLER_47_225
*1557 FILLER_47_237
*1558 FILLER_47_249
*1559 FILLER_47_261
*1560 FILLER_47_273
*1561 FILLER_47_279
*1562 FILLER_47_281
*1563 FILLER_47_293
*1564 FILLER_47_3
*1565 FILLER_47_33
*1566 FILLER_47_45
*1567 FILLER_47_53
*1568 FILLER_47_57
*1569 FILLER_47_69
*1570 FILLER_47_81
*1571 FILLER_47_9
*1572 FILLER_47_93
*1573 FILLER_48_109
*1574 FILLER_48_121
*1575 FILLER_48_133
*1576 FILLER_48_139
*1577 FILLER_48_141
*1578 FILLER_48_15
*1579 FILLER_48_153
*1580 FILLER_48_165
*1581 FILLER_48_177
*1582 FILLER_48_189
*1583 FILLER_48_195
*1584 FILLER_48_197
*1585 FILLER_48_209
*1586 FILLER_48_221
*1587 FILLER_48_233
*1588 FILLER_48_245
*1589 FILLER_48_251
*1590 FILLER_48_253
*1591 FILLER_48_265
*1592 FILLER_48_27
*1593 FILLER_48_277
*1594 FILLER_48_289
*1595 FILLER_48_29
*1596 FILLER_48_297
*1597 FILLER_48_3
*1598 FILLER_48_41
*1599 FILLER_48_53
*1600 FILLER_48_65
*1601 FILLER_48_77
*1602 FILLER_48_83
*1603 FILLER_48_85
*1604 FILLER_48_97
*1605 FILLER_49_105
*1606 FILLER_49_111
*1607 FILLER_49_113
*1608 FILLER_49_125
*1609 FILLER_49_137
*1610 FILLER_49_149
*1611 FILLER_49_15
*1612 FILLER_49_161
*1613 FILLER_49_167
*1614 FILLER_49_169
*1615 FILLER_49_181
*1616 FILLER_49_193
*1617 FILLER_49_205
*1618 FILLER_49_217
*1619 FILLER_49_223
*1620 FILLER_49_225
*1621 FILLER_49_237
*1622 FILLER_49_249
*1623 FILLER_49_261
*1624 FILLER_49_27
*1625 FILLER_49_273
*1626 FILLER_49_279
*1627 FILLER_49_281
*1628 FILLER_49_293
*1629 FILLER_49_3
*1630 FILLER_49_39
*1631 FILLER_49_51
*1632 FILLER_49_55
*1633 FILLER_49_57
*1634 FILLER_49_69
*1635 FILLER_49_81
*1636 FILLER_49_93
*1637 FILLER_4_109
*1638 FILLER_4_121
*1639 FILLER_4_133
*1640 FILLER_4_139
*1641 FILLER_4_141
*1642 FILLER_4_153
*1643 FILLER_4_165