*SPEF "ieee 1481-1999"
*DESIGN "yupferris_bitslam"
*DATE "11:11:11 Fri 11 11, 1111"
*VENDOR "OpenRCX"
*PROGRAM "Parallel Extraction"
*VERSION "1.0"
*DESIGN_FLOW "NAME_SCOPE LOCAL" "PIN_CAP NONE"
*DIVIDER /
*DELIMITER :
*BUS_DELIMITER []
*T_UNIT 1 NS
*C_UNIT 1 PF
*R_UNIT 1 OHM
*L_UNIT 1 HENRY

*NAME_MAP
*1 io_in[0]
*2 io_in[1]
*3 io_in[2]
*4 io_in[3]
*5 io_in[4]
*6 io_in[5]
*7 io_in[6]
*8 io_in[7]
*9 io_out[0]
*10 io_out[1]
*11 io_out[2]
*12 io_out[3]
*13 net8
*14 net9
*15 net10
*16 net11
*19 _000_
*20 _001_
*21 _002_
*22 _003_
*23 _004_
*24 _005_
*25 _006_
*26 _007_
*27 _008_
*28 _009_
*29 _010_
*30 _011_
*31 _012_
*32 _013_
*33 _014_
*34 _015_
*35 _016_
*36 _017_
*37 _018_
*38 _019_
*39 _020_
*40 _021_
*41 _022_
*42 _023_
*43 _024_
*44 _025_
*45 _026_
*46 _027_
*47 _028_
*48 _029_
*49 _030_
*50 _031_
*51 _032_
*52 _033_
*53 _034_
*54 _035_
*55 _036_
*56 _037_
*57 _038_
*58 _039_
*59 _040_
*60 _041_
*61 _042_
*62 _043_
*63 _044_
*64 _045_
*65 _046_
*66 _047_
*67 _048_
*68 _049_
*69 _050_
*70 _051_
*71 _052_
*72 _053_
*73 _054_
*74 _055_
*75 _056_
*76 _057_
*77 _058_
*78 _059_
*79 _060_
*80 _061_
*81 _062_
*82 _063_
*83 _064_
*84 _065_
*85 _066_
*86 _067_
*87 _068_
*88 _069_
*89 _070_
*90 _071_
*91 _072_
*92 _073_
*93 _074_
*94 _075_
*95 _076_
*96 _077_
*97 _078_
*98 _079_
*99 _080_
*100 _081_
*101 _082_
*102 _083_
*103 _084_
*104 _085_
*105 _086_
*106 _087_
*107 _088_
*108 _089_
*109 _090_
*110 _091_
*111 _092_
*112 _093_
*113 _094_
*114 _095_
*115 _096_
*116 _097_
*117 _098_
*118 _099_
*119 _100_
*120 _101_
*121 _102_
*122 _103_
*123 _104_
*124 _105_
*125 _106_
*126 _107_
*127 _108_
*128 _109_
*129 _110_
*130 _111_
*131 _112_
*132 _113_
*133 _114_
*134 _115_
*135 _116_
*136 _117_
*137 _118_
*138 _119_
*139 _120_
*140 _121_
*141 _122_
*142 _123_
*143 _124_
*144 _125_
*145 _126_
*146 _127_
*147 _128_
*148 _129_
*149 _130_
*150 _131_
*151 _132_
*152 _133_
*153 _134_
*154 _135_
*155 _136_
*156 _137_
*157 _138_
*158 _139_
*159 _140_
*160 _141_
*161 _142_
*162 _143_
*163 _144_
*164 _145_
*165 _146_
*166 _147_
*167 _148_
*168 _149_
*169 _150_
*170 _151_
*171 _152_
*172 _153_
*173 _154_
*174 _155_
*175 _156_
*176 _157_
*177 _158_
*178 _159_
*179 _160_
*180 _161_
*181 _162_
*182 _163_
*183 _164_
*184 _165_
*185 _166_
*186 _167_
*187 _168_
*188 _169_
*189 _170_
*190 _171_
*191 _172_
*192 _173_
*193 _174_
*194 _175_
*195 _176_
*196 _177_
*197 _178_
*198 _179_
*199 _180_
*200 _181_
*201 _182_
*202 _183_
*203 _184_
*204 _185_
*205 _186_
*206 _187_
*207 _188_
*208 _189_
*209 _190_
*210 _191_
*211 _192_
*212 _193_
*213 _194_
*214 _195_
*215 _196_
*216 _197_
*217 _198_
*218 _199_
*219 _200_
*220 _201_
*221 _202_
*222 _203_
*223 _204_
*224 _205_
*225 _206_
*226 _207_
*227 _208_
*228 _209_
*229 _210_
*230 _211_
*231 _212_
*232 _213_
*233 _214_
*234 _215_
*235 _216_
*236 _217_
*237 _218_
*238 _219_
*239 _220_
*240 _221_
*241 _222_
*242 _223_
*243 _224_
*244 _225_
*245 clknet_0_io_in[0]
*246 clknet_3_0__leaf_io_in[0]
*247 clknet_3_1__leaf_io_in[0]
*248 clknet_3_2__leaf_io_in[0]
*249 clknet_3_3__leaf_io_in[0]
*250 clknet_3_4__leaf_io_in[0]
*251 clknet_3_5__leaf_io_in[0]
*252 clknet_3_6__leaf_io_in[0]
*253 clknet_3_7__leaf_io_in[0]
*254 mixer\.voice0_out
*255 mixer\.voice0_volume\[0\]
*256 mixer\.voice0_volume\[1\]
*257 mixer\.voice0_volume\[2\]
*258 mixer\.voice1_out
*259 mixer\.voice1_volume\[0\]
*260 mixer\.voice1_volume\[1\]
*261 mixer\.voice1_volume\[2\]
*262 mixer_select
*263 net1
*264 net2
*265 net3
*266 net4
*267 net5
*268 net6
*269 net7
*270 voice0\.addr
*271 voice0\.clk_div_counter\[0\]
*272 voice0\.clk_div_counter\[1\]
*273 voice0\.clk_div_counter\[2\]
*274 voice0\.clk_div_counter\[3\]
*275 voice0\.clk_div_counter\[4\]
*276 voice0\.clk_div_counter\[5\]
*277 voice0\.lfsr\[1\]
*278 voice0\.lfsr\[2\]
*279 voice0\.lfsr\[3\]
*280 voice0\.lfsr\[4\]
*281 voice0\.lfsr\[5\]
*282 voice0\.lfsr\[6\]
*283 voice0\.lfsr\[7\]
*284 voice0\.lfsr\[8\]
*285 voice0\.lfsr\[9\]
*286 voice0\.lfsr_tap_mask\[0\]
*287 voice0\.lfsr_tap_mask\[1\]
*288 voice0\.lfsr_tap_mask\[2\]
*289 voice0\.lfsr_tap_mask\[3\]
*290 voice0\.max_clk_div_counter\[0\]
*291 voice0\.max_clk_div_counter\[1\]
*292 voice0\.max_clk_div_counter\[2\]
*293 voice0\.max_clk_div_counter\[3\]
*294 voice0\.max_clk_div_counter\[4\]
*295 voice0\.max_clk_div_counter\[5\]
*296 voice1\.clk_div_counter\[0\]
*297 voice1\.clk_div_counter\[1\]
*298 voice1\.clk_div_counter\[2\]
*299 voice1\.clk_div_counter\[3\]
*300 voice1\.clk_div_counter\[4\]
*301 voice1\.clk_div_counter\[5\]
*302 voice1\.lfsr\[1\]
*303 voice1\.lfsr\[2\]
*304 voice1\.lfsr\[3\]
*305 voice1\.lfsr\[4\]
*306 voice1\.lfsr\[5\]
*307 voice1\.lfsr\[6\]
*308 voice1\.lfsr\[7\]
*309 voice1\.lfsr\[8\]
*310 voice1\.lfsr\[9\]
*311 voice1\.lfsr_tap_mask\[0\]
*312 voice1\.lfsr_tap_mask\[1\]
*313 voice1\.lfsr_tap_mask\[2\]
*314 voice1\.lfsr_tap_mask\[3\]
*315 voice1\.max_clk_div_counter\[0\]
*316 voice1\.max_clk_div_counter\[1\]
*317 voice1\.max_clk_div_counter\[2\]
*318 voice1\.max_clk_div_counter\[3\]
*319 voice1\.max_clk_div_counter\[4\]
*320 voice1\.max_clk_div_counter\[5\]
*321 voice_select
*322 ANTENNA_0
*323 ANTENNA_1
*324 ANTENNA_2
*325 ANTENNA_3
*326 ANTENNA_4
*327 ANTENNA_5
*328 ANTENNA_6
*329 FILLER_0_108
*330 FILLER_0_129
*331 FILLER_0_136
*332 FILLER_0_144
*333 FILLER_0_151
*334 FILLER_0_163
*335 FILLER_0_167
*336 FILLER_0_169
*337 FILLER_0_181
*338 FILLER_0_193
*339 FILLER_0_197
*340 FILLER_0_209
*341 FILLER_0_21
*342 FILLER_0_221
*343 FILLER_0_225
*344 FILLER_0_237
*345 FILLER_0_249
*346 FILLER_0_253
*347 FILLER_0_265
*348 FILLER_0_27
*349 FILLER_0_277
*350 FILLER_0_281
*351 FILLER_0_29
*352 FILLER_0_293
*353 FILLER_0_3
*354 FILLER_0_35
*355 FILLER_0_52
*356 FILLER_0_57
*357 FILLER_0_63
*358 FILLER_0_83
*359 FILLER_0_88
*360 FILLER_10_101
*361 FILLER_10_112
*362 FILLER_10_123
*363 FILLER_10_130
*364 FILLER_10_138
*365 FILLER_10_141
*366 FILLER_10_150
*367 FILLER_10_162
*368 FILLER_10_174
*369 FILLER_10_186
*370 FILLER_10_194
*371 FILLER_10_197
*372 FILLER_10_209
*373 FILLER_10_221
*374 FILLER_10_233
*375 FILLER_10_24
*376 FILLER_10_245
*377 FILLER_10_251
*378 FILLER_10_253
*379 FILLER_10_265
*380 FILLER_10_277
*381 FILLER_10_289
*382 FILLER_10_29
*383 FILLER_10_297
*384 FILLER_10_3
*385 FILLER_10_41
*386 FILLER_10_67
*387 FILLER_10_7
*388 FILLER_10_79
*389 FILLER_10_83
*390 FILLER_11_102
*391 FILLER_11_110
*392 FILLER_11_117
*393 FILLER_11_127
*394 FILLER_11_139
*395 FILLER_11_151
*396 FILLER_11_157
*397 FILLER_11_163
*398 FILLER_11_167
*399 FILLER_11_169
*400 FILLER_11_181
*401 FILLER_11_193
*402 FILLER_11_205
*403 FILLER_11_217
*404 FILLER_11_223
*405 FILLER_11_225
*406 FILLER_11_237
*407 FILLER_11_249
*408 FILLER_11_261
*409 FILLER_11_273
*410 FILLER_11_279
*411 FILLER_11_281
*412 FILLER_11_293
*413 FILLER_11_30
*414 FILLER_11_34
*415 FILLER_11_52
*416 FILLER_11_57
*417 FILLER_11_6
*418 FILLER_11_69
*419 FILLER_11_89
*420 FILLER_12_101
*421 FILLER_12_105
*422 FILLER_12_110
*423 FILLER_12_117
*424 FILLER_12_129
*425 FILLER_12_137
*426 FILLER_12_141
*427 FILLER_12_153
*428 FILLER_12_161
*429 FILLER_12_167
*430 FILLER_12_179
*431 FILLER_12_191
*432 FILLER_12_195
*433 FILLER_12_197
*434 FILLER_12_209
*435 FILLER_12_22
*436 FILLER_12_221
*437 FILLER_12_233
*438 FILLER_12_245
*439 FILLER_12_251
*440 FILLER_12_253
*441 FILLER_12_265
*442 FILLER_12_277
*443 FILLER_12_289
*444 FILLER_12_29
*445 FILLER_12_297
*446 FILLER_12_3
*447 FILLER_12_41
*448 FILLER_12_65
*449 FILLER_12_77
*450 FILLER_12_83
*451 FILLER_13_106
*452 FILLER_13_113
*453 FILLER_13_124
*454 FILLER_13_132
*455 FILLER_13_141
*456 FILLER_13_153
*457 FILLER_13_165
*458 FILLER_13_169
*459 FILLER_13_181
*460 FILLER_13_193
*461 FILLER_13_205
*462 FILLER_13_217
*463 FILLER_13_223
*464 FILLER_13_225
*465 FILLER_13_237
*466 FILLER_13_249
*467 FILLER_13_261
*468 FILLER_13_273
*469 FILLER_13_279
*470 FILLER_13_281
*471 FILLER_13_293
*472 FILLER_13_30
*473 FILLER_13_50
*474 FILLER_13_57
*475 FILLER_13_6
*476 FILLER_13_65
*477 FILLER_13_84
*478 FILLER_13_88
*479 FILLER_14_108
*480 FILLER_14_112
*481 FILLER_14_116
*482 FILLER_14_129
*483 FILLER_14_137
*484 FILLER_14_141
*485 FILLER_14_149
*486 FILLER_14_156
*487 FILLER_14_168
*488 FILLER_14_180
*489 FILLER_14_19
*490 FILLER_14_192
*491 FILLER_14_197
*492 FILLER_14_209
*493 FILLER_14_221
*494 FILLER_14_233
*495 FILLER_14_245
*496 FILLER_14_251
*497 FILLER_14_253
*498 FILLER_14_265
*499 FILLER_14_27
*500 FILLER_14_277
*501 FILLER_14_289
*502 FILLER_14_29
*503 FILLER_14_297
*504 FILLER_14_46
*505 FILLER_14_70
*506 FILLER_14_82
*507 FILLER_14_85
*508 FILLER_14_96
*509 FILLER_15_106
*510 FILLER_15_120
*511 FILLER_15_130
*512 FILLER_15_142
*513 FILLER_15_154
*514 FILLER_15_166
*515 FILLER_15_169
*516 FILLER_15_181
*517 FILLER_15_19
*518 FILLER_15_193
*519 FILLER_15_205
*520 FILLER_15_217
*521 FILLER_15_223
*522 FILLER_15_225
*523 FILLER_15_237
*524 FILLER_15_249
*525 FILLER_15_26
*526 FILLER_15_261
*527 FILLER_15_273
*528 FILLER_15_279
*529 FILLER_15_281
*530 FILLER_15_293
*531 FILLER_15_48
*532 FILLER_15_57
*533 FILLER_15_81
*534 FILLER_15_89
*535 FILLER_16_104
*536 FILLER_16_116
*537 FILLER_16_128
*538 FILLER_16_132
*539 FILLER_16_136
*540 FILLER_16_141
*541 FILLER_16_149
*542 FILLER_16_161
*543 FILLER_16_173
*544 FILLER_16_185
*545 FILLER_16_193
*546 FILLER_16_197
*547 FILLER_16_209
*548 FILLER_16_221
*549 FILLER_16_233
*550 FILLER_16_24
*551 FILLER_16_245
*552 FILLER_16_251
*553 FILLER_16_253
*554 FILLER_16_265
*555 FILLER_16_277
*556 FILLER_16_289
*557 FILLER_16_297
*558 FILLER_16_3
*559 FILLER_16_32
*560 FILLER_16_44
*561 FILLER_16_65
*562 FILLER_16_7
*563 FILLER_16_77
*564 FILLER_16_83
*565 FILLER_16_85
*566 FILLER_16_93
*567 FILLER_17_103
*568 FILLER_17_111
*569 FILLER_17_113
*570 FILLER_17_119
*571 FILLER_17_123
*572 FILLER_17_133
*573 FILLER_17_143
*574 FILLER_17_153
*575 FILLER_17_165
*576 FILLER_17_169
*577 FILLER_17_181
*578 FILLER_17_193
*579 FILLER_17_205
*580 FILLER_17_217
*581 FILLER_17_223
*582 FILLER_17_225
*583 FILLER_17_237
*584 FILLER_17_249
*585 FILLER_17_261
*586 FILLER_17_27
*587 FILLER_17_273
*588 FILLER_17_279
*589 FILLER_17_281
*590 FILLER_17_293
*591 FILLER_17_3
*592 FILLER_17_35
*593 FILLER_17_52
*594 FILLER_17_57
*595 FILLER_17_69
*596 FILLER_17_88
*597 FILLER_17_96
*598 FILLER_18_109
*599 FILLER_18_117
*600 FILLER_18_126
*601 FILLER_18_138
*602 FILLER_18_147
*603 FILLER_18_159
*604 FILLER_18_171
*605 FILLER_18_183
*606 FILLER_18_195
*607 FILLER_18_197
*608 FILLER_18_209
*609 FILLER_18_221
*610 FILLER_18_233
*611 FILLER_18_24
*612 FILLER_18_245
*613 FILLER_18_251
*614 FILLER_18_253
*615 FILLER_18_265
*616 FILLER_18_277
*617 FILLER_18_289
*618 FILLER_18_297
*619 FILLER_18_3
*620 FILLER_18_32
*621 FILLER_18_39
*622 FILLER_18_59
*623 FILLER_18_7
*624 FILLER_18_79
*625 FILLER_18_83
*626 FILLER_18_85
*627 FILLER_18_97
*628 FILLER_19_108
*629 FILLER_19_120
*630 FILLER_19_132
*631 FILLER_19_144
*632 FILLER_19_157
*633 FILLER_19_165
*634 FILLER_19_169
*635 FILLER_19_181
*636 FILLER_19_193
*637 FILLER_19_205
*638 FILLER_19_217
*639 FILLER_19_223
*640 FILLER_19_225
*641 FILLER_19_23
*642 FILLER_19_237
*643 FILLER_19_249
*644 FILLER_19_261
*645 FILLER_19_27
*646 FILLER_19_273
*647 FILLER_19_279
*648 FILLER_19_281
*649 FILLER_19_293
*650 FILLER_19_3
*651 FILLER_19_46
*652 FILLER_19_54
*653 FILLER_19_57
*654 FILLER_19_69
*655 FILLER_19_86
*656 FILLER_19_98
*657 FILLER_1_101
*658 FILLER_1_107
*659 FILLER_1_111
*660 FILLER_1_113
*661 FILLER_1_124
*662 FILLER_1_132
*663 FILLER_1_143
*664 FILLER_1_15
*665 FILLER_1_150
*666 FILLER_1_162
*667 FILLER_1_178
*668 FILLER_1_190
*669 FILLER_1_202
*670 FILLER_1_214
*671 FILLER_1_222
*672 FILLER_1_225
*673 FILLER_1_237
*674 FILLER_1_249
*675 FILLER_1_261
*676 FILLER_1_273
*677 FILLER_1_279
*678 FILLER_1_281
*679 FILLER_1_293
*680 FILLER_1_3
*681 FILLER_1_36
*682 FILLER_1_48
*683 FILLER_1_93
*684 FILLER_20_105
*685 FILLER_20_110
*686 FILLER_20_122
*687 FILLER_20_134
*688 FILLER_20_150
*689 FILLER_20_162
*690 FILLER_20_174
*691 FILLER_20_186
*692 FILLER_20_19
*693 FILLER_20_194
*694 FILLER_20_197
*695 FILLER_20_209
*696 FILLER_20_221
*697 FILLER_20_233
*698 FILLER_20_245
*699 FILLER_20_251
*700 FILLER_20_253
*701 FILLER_20_265
*702 FILLER_20_27
*703 FILLER_20_277
*704 FILLER_20_289
*705 FILLER_20_297
*706 FILLER_20_32
*707 FILLER_20_40
*708 FILLER_20_58
*709 FILLER_20_65
*710 FILLER_20_77
*711 FILLER_20_83
*712 FILLER_20_85
*713 FILLER_20_97
*714 FILLER_21_106
*715 FILLER_21_116
*716 FILLER_21_123
*717 FILLER_21_135
*718 FILLER_21_147
*719 FILLER_21_15
*720 FILLER_21_159
*721 FILLER_21_167
*722 FILLER_21_169
*723 FILLER_21_181
*724 FILLER_21_193
*725 FILLER_21_205
*726 FILLER_21_217
*727 FILLER_21_223
*728 FILLER_21_225
*729 FILLER_21_237
*730 FILLER_21_249
*731 FILLER_21_261
*732 FILLER_21_273
*733 FILLER_21_279
*734 FILLER_21_281
*735 FILLER_21_293
*736 FILLER_21_3
*737 FILLER_21_31
*738 FILLER_21_38
*739 FILLER_21_45
*740 FILLER_21_52
*741 FILLER_21_57
*742 FILLER_21_62
*743 FILLER_21_69
*744 FILLER_21_81
*745 FILLER_21_85
*746 FILLER_21_93
*747 FILLER_22_10
*748 FILLER_22_107
*749 FILLER_22_118
*750 FILLER_22_128
*751 FILLER_22_141
*752 FILLER_22_149
*753 FILLER_22_161
*754 FILLER_22_173
*755 FILLER_22_185
*756 FILLER_22_193
*757 FILLER_22_197
*758 FILLER_22_209
*759 FILLER_22_221
*760 FILLER_22_233
*761 FILLER_22_24
*762 FILLER_22_245
*763 FILLER_22_251
*764 FILLER_22_253
*765 FILLER_22_265
*766 FILLER_22_277
*767 FILLER_22_289
*768 FILLER_22_29
*769 FILLER_22_297
*770 FILLER_22_3
*771 FILLER_22_41
*772 FILLER_22_49
*773 FILLER_22_60
*774 FILLER_22_67
*775 FILLER_22_79
*776 FILLER_22_83
*777 FILLER_22_94
*778 FILLER_23_101
*779 FILLER_23_109
*780 FILLER_23_12
*781 FILLER_23_122
*782 FILLER_23_129
*783 FILLER_23_141
*784 FILLER_23_153
*785 FILLER_23_165
*786 FILLER_23_169
*787 FILLER_23_181
*788 FILLER_23_193
*789 FILLER_23_205
*790 FILLER_23_21
*791 FILLER_23_217
*792 FILLER_23_223
*793 FILLER_23_225
*794 FILLER_23_237
*795 FILLER_23_249
*796 FILLER_23_261
*797 FILLER_23_273
*798 FILLER_23_279
*799 FILLER_23_281
*800 FILLER_23_293
*801 FILLER_23_35
*802 FILLER_23_48
*803 FILLER_23_60
*804 FILLER_23_73
*805 FILLER_23_86
*806 FILLER_23_94
*807 FILLER_24_105
*808 FILLER_24_113
*809 FILLER_24_118
*810 FILLER_24_126
*811 FILLER_24_138
*812 FILLER_24_144
*813 FILLER_24_156
*814 FILLER_24_16
*815 FILLER_24_168
*816 FILLER_24_180
*817 FILLER_24_192
*818 FILLER_24_197
*819 FILLER_24_20
*820 FILLER_24_209
*821 FILLER_24_221
*822 FILLER_24_233
*823 FILLER_24_24
*824 FILLER_24_245
*825 FILLER_24_251
*826 FILLER_24_253
*827 FILLER_24_265
*828 FILLER_24_277
*829 FILLER_24_289
*830 FILLER_24_297
*831 FILLER_24_3
*832 FILLER_24_32
*833 FILLER_24_44
*834 FILLER_24_57
*835 FILLER_24_64
*836 FILLER_24_76
*837 FILLER_24_85
*838 FILLER_24_93
*839 FILLER_25_102
*840 FILLER_25_110
*841 FILLER_25_12
*842 FILLER_25_122
*843 FILLER_25_134
*844 FILLER_25_143
*845 FILLER_25_155
*846 FILLER_25_167
*847 FILLER_25_169
*848 FILLER_25_181
*849 FILLER_25_193
*850 FILLER_25_205
*851 FILLER_25_217
*852 FILLER_25_223
*853 FILLER_25_225
*854 FILLER_25_237
*855 FILLER_25_249
*856 FILLER_25_25
*857 FILLER_25_261
*858 FILLER_25_273
*859 FILLER_25_279
*860 FILLER_25_281
*861 FILLER_25_293
*862 FILLER_25_38
*863 FILLER_25_42
*864 FILLER_25_52
*865 FILLER_25_57
*866 FILLER_25_69
*867 FILLER_25_82
*868 FILLER_25_95
*869 FILLER_26_105
*870 FILLER_26_115
*871 FILLER_26_124
*872 FILLER_26_136
*873 FILLER_26_141
*874 FILLER_26_15
*875 FILLER_26_154
*876 FILLER_26_166
*877 FILLER_26_178
*878 FILLER_26_190
*879 FILLER_26_197
*880 FILLER_26_209
*881 FILLER_26_22
*882 FILLER_26_221
*883 FILLER_26_233
*884 FILLER_26_245
*885 FILLER_26_251
*886 FILLER_26_253
*887 FILLER_26_265
*888 FILLER_26_277
*889 FILLER_26_289
*890 FILLER_26_297
*891 FILLER_26_32
*892 FILLER_26_36
*893 FILLER_26_41
*894 FILLER_26_48
*895 FILLER_26_6
*896 FILLER_26_61
*897 FILLER_26_68
*898 FILLER_26_80
*899 FILLER_26_85
*900 FILLER_26_93
*901 FILLER_27_106
*902 FILLER_27_119
*903 FILLER_27_127
*904 FILLER_27_134
*905 FILLER_27_146
*906 FILLER_27_156
*907 FILLER_27_169
*908 FILLER_27_18
*909 FILLER_27_181
*910 FILLER_27_193
*911 FILLER_27_205
*912 FILLER_27_217
*913 FILLER_27_223
*914 FILLER_27_225
*915 FILLER_27_237
*916 FILLER_27_249
*917 FILLER_27_261
*918 FILLER_27_273
*919 FILLER_27_279
*920 FILLER_27_281
*921 FILLER_27_293
*922 FILLER_27_3
*923 FILLER_27_31
*924 FILLER_27_44
*925 FILLER_27_52
*926 FILLER_27_57
*927 FILLER_27_61
*928 FILLER_27_68
*929 FILLER_27_72
*930 FILLER_27_95
*931 FILLER_28_103
*932 FILLER_28_11
*933 FILLER_28_120
*934 FILLER_28_130
*935 FILLER_28_138
*936 FILLER_28_141
*937 FILLER_28_153
*938 FILLER_28_165
*939 FILLER_28_177
*940 FILLER_28_189
*941 FILLER_28_195
*942 FILLER_28_197
*943 FILLER_28_209
*944 FILLER_28_221
*945 FILLER_28_233
*946 FILLER_28_24
*947 FILLER_28_245
*948 FILLER_28_251
*949 FILLER_28_253
*950 FILLER_28_265
*951 FILLER_28_277
*952 FILLER_28_289
*953 FILLER_28_297
*954 FILLER_28_3
*955 FILLER_28_32
*956 FILLER_28_40
*957 FILLER_28_50
*958 FILLER_28_63
*959 FILLER_28_7
*960 FILLER_28_76
*961 FILLER_28_85
*962 FILLER_28_96
*963 FILLER_29_110
*964 FILLER_29_113
*965 FILLER_29_118
*966 FILLER_29_127
*967 FILLER_29_139
*968 FILLER_29_151
*969 FILLER_29_163
*970 FILLER_29_167
*971 FILLER_29_169
*972 FILLER_29_18
*973 FILLER_29_181
*974 FILLER_29_193
*975 FILLER_29_205
*976 FILLER_29_217
*977 FILLER_29_223
*978 FILLER_29_225
*979 FILLER_29_237
*980 FILLER_29_249
*981 FILLER_29_261
*982 FILLER_29_273
*983 FILLER_29_279
*984 FILLER_29_28
*985 FILLER_29_281
*986 FILLER_29_293
*987 FILLER_29_41
*988 FILLER_29_48
*989 FILLER_29_57
*990 FILLER_29_6
*991 FILLER_29_69
*992 FILLER_29_81
*993 FILLER_29_89
*994 FILLER_29_98
*995 FILLER_2_102
*996 FILLER_2_122
*997 FILLER_2_135
*998 FILLER_2_139
*999 FILLER_2_144
*1000 FILLER_2_156
*1001 FILLER_2_168
*1002 FILLER_2_180
*1003 FILLER_2_192
*1004 FILLER_2_197
*1005 FILLER_2_209
*1006 FILLER_2_221
*1007 FILLER_2_233
*1008 FILLER_2_24
*1009 FILLER_2_245
*1010 FILLER_2_251
*1011 FILLER_2_253
*1012 FILLER_2_265
*1013 FILLER_2_277
*1014 FILLER_2_289
*1015 FILLER_2_29
*1016 FILLER_2_297
*1017 FILLER_2_3
*1018 FILLER_2_43
*1019 FILLER_2_60
*1020 FILLER_2_7
*1021 FILLER_2_80
*1022 FILLER_30_103
*1023 FILLER_30_112
*1024 FILLER_30_124
*1025 FILLER_30_13
*1026 FILLER_30_136
*1027 FILLER_30_145
*1028 FILLER_30_157
*1029 FILLER_30_169
*1030 FILLER_30_181
*1031 FILLER_30_193
*1032 FILLER_30_197
*1033 FILLER_30_209
*1034 FILLER_30_221
*1035 FILLER_30_233
*1036 FILLER_30_24
*1037 FILLER_30_245
*1038 FILLER_30_251
*1039 FILLER_30_253
*1040 FILLER_30_265
*1041 FILLER_30_277
*1042 FILLER_30_289
*1043 FILLER_30_29
*1044 FILLER_30_297
*1045 FILLER_30_3
*1046 FILLER_30_35
*1047 FILLER_30_43
*1048 FILLER_30_55
*1049 FILLER_30_67
*1050 FILLER_30_79
*1051 FILLER_30_83
*1052 FILLER_30_90
*1053 FILLER_30_97
*1054 FILLER_31_104
*1055 FILLER_31_113
*1056 FILLER_31_121
*1057 FILLER_31_133
*1058 FILLER_31_145
*1059 FILLER_31_157
*1060 FILLER_31_165
*1061 FILLER_31_176
*1062 FILLER_31_188
*1063 FILLER_31_200
*1064 FILLER_31_212
*1065 FILLER_31_225
*1066 FILLER_31_237
*1067 FILLER_31_249
*1068 FILLER_31_26
*1069 FILLER_31_261
*1070 FILLER_31_273
*1071 FILLER_31_279
*1072 FILLER_31_281
*1073 FILLER_31_293
*1074 FILLER_31_3
*1075 FILLER_31_38
*1076 FILLER_31_42
*1077 FILLER_31_52
*1078 FILLER_31_57
*1079 FILLER_31_69
*1080 FILLER_31_79
*1081 FILLER_31_91
*1082 FILLER_31_97
*1083 FILLER_32_102
*1084 FILLER_32_113
*1085 FILLER_32_121
*1086 FILLER_32_131
*1087 FILLER_32_139
*1088 FILLER_32_144
*1089 FILLER_32_15
*1090 FILLER_32_152
*1091 FILLER_32_157
*1092 FILLER_32_169
*1093 FILLER_32_181
*1094 FILLER_32_193
*1095 FILLER_32_197
*1096 FILLER_32_209
*1097 FILLER_32_221
*1098 FILLER_32_233
*1099 FILLER_32_245
*1100 FILLER_32_251
*1101 FILLER_32_253
*1102 FILLER_32_265
*1103 FILLER_32_27
*1104 FILLER_32_277
*1105 FILLER_32_289
*1106 FILLER_32_29
*1107 FILLER_32_297
*1108 FILLER_32_3
*1109 FILLER_32_40
*1110 FILLER_32_52
*1111 FILLER_32_64
*1112 FILLER_32_76
*1113 FILLER_32_85
*1114 FILLER_32_94
*1115 FILLER_33_103
*1116 FILLER_33_111
*1117 FILLER_33_113
*1118 FILLER_33_125
*1119 FILLER_33_137
*1120 FILLER_33_149
*1121 FILLER_33_161
*1122 FILLER_33_167
*1123 FILLER_33_169
*1124 FILLER_33_181
*1125 FILLER_33_193
*1126 FILLER_33_20
*1127 FILLER_33_205
*1128 FILLER_33_217
*1129 FILLER_33_223
*1130 FILLER_33_225
*1131 FILLER_33_237
*1132 FILLER_33_249
*1133 FILLER_33_261
*1134 FILLER_33_273
*1135 FILLER_33_279
*1136 FILLER_33_281
*1137 FILLER_33_293
*1138 FILLER_33_3
*1139 FILLER_33_31
*1140 FILLER_33_43
*1141 FILLER_33_55
*1142 FILLER_33_57
*1143 FILLER_33_69
*1144 FILLER_33_80
*1145 FILLER_33_90
*1146 FILLER_34_100
*1147 FILLER_34_112
*1148 FILLER_34_124
*1149 FILLER_34_136
*1150 FILLER_34_141
*1151 FILLER_34_149
*1152 FILLER_34_15
*1153 FILLER_34_161
*1154 FILLER_34_173
*1155 FILLER_34_185
*1156 FILLER_34_193
*1157 FILLER_34_197
*1158 FILLER_34_209
*1159 FILLER_34_22
*1160 FILLER_34_221
*1161 FILLER_34_233
*1162 FILLER_34_245
*1163 FILLER_34_251
*1164 FILLER_34_253
*1165 FILLER_34_265
*1166 FILLER_34_277
*1167 FILLER_34_289
*1168 FILLER_34_29
*1169 FILLER_34_297
*1170 FILLER_34_3
*1171 FILLER_34_35
*1172 FILLER_34_46
*1173 FILLER_34_61
*1174 FILLER_34_65
*1175 FILLER_34_69
*1176 FILLER_34_78
*1177 FILLER_34_85
*1178 FILLER_34_93
*1179 FILLER_35_108
*1180 FILLER_35_113
*1181 FILLER_35_121
*1182 FILLER_35_133
*1183 FILLER_35_145
*1184 FILLER_35_157
*1185 FILLER_35_165
*1186 FILLER_35_169
*1187 FILLER_35_181
*1188 FILLER_35_193
*1189 FILLER_35_205
*1190 FILLER_35_217
*1191 FILLER_35_223
*1192 FILLER_35_225
*1193 FILLER_35_237
*1194 FILLER_35_249
*1195 FILLER_35_261
*1196 FILLER_35_273
*1197 FILLER_35_279
*1198 FILLER_35_281
*1199 FILLER_35_293
*1200 FILLER_35_3
*1201 FILLER_35_33
*1202 FILLER_35_46
*1203 FILLER_35_54
*1204 FILLER_35_60
*1205 FILLER_35_67
*1206 FILLER_35_93
*1207 FILLER_36_106
*1208 FILLER_36_112
*1209 FILLER_36_120
*1210 FILLER_36_132
*1211 FILLER_36_141
*1212 FILLER_36_153
*1213 FILLER_36_165
*1214 FILLER_36_177
*1215 FILLER_36_189
*1216 FILLER_36_19
*1217 FILLER_36_195
*1218 FILLER_36_197
*1219 FILLER_36_209
*1220 FILLER_36_221
*1221 FILLER_36_233
*1222 FILLER_36_245
*1223 FILLER_36_251
*1224 FILLER_36_253
*1225 FILLER_36_265
*1226 FILLER_36_27
*1227 FILLER_36_277
*1228 FILLER_36_289
*1229 FILLER_36_29
*1230 FILLER_36_297
*1231 FILLER_36_3
*1232 FILLER_36_40
*1233 FILLER_36_50
*1234 FILLER_36_57
*1235 FILLER_36_63
*1236 FILLER_36_73
*1237 FILLER_36_81
*1238 FILLER_36_94
*1239 FILLER_37_106
*1240 FILLER_37_113
*1241 FILLER_37_125
*1242 FILLER_37_137
*1243 FILLER_37_149
*1244 FILLER_37_15
*1245 FILLER_37_161
*1246 FILLER_37_167
*1247 FILLER_37_169
*1248 FILLER_37_181
*1249 FILLER_37_193
*1250 FILLER_37_205
*1251 FILLER_37_217
*1252 FILLER_37_223
*1253 FILLER_37_225
*1254 FILLER_37_237
*1255 FILLER_37_249
*1256 FILLER_37_261
*1257 FILLER_37_27
*1258 FILLER_37_273
*1259 FILLER_37_279
*1260 FILLER_37_281
*1261 FILLER_37_293
*1262 FILLER_37_3
*1263 FILLER_37_39
*1264 FILLER_37_51
*1265 FILLER_37_55
*1266 FILLER_37_57
*1267 FILLER_37_74
*1268 FILLER_37_82
*1269 FILLER_37_94
*1270 FILLER_38_110
*1271 FILLER_38_122
*1272 FILLER_38_134
*1273 FILLER_38_141
*1274 FILLER_38_15
*1275 FILLER_38_153
*1276 FILLER_38_165
*1277 FILLER_38_177
*1278 FILLER_38_189
*1279 FILLER_38_195
*1280 FILLER_38_197
*1281 FILLER_38_209
*1282 FILLER_38_221
*1283 FILLER_38_233
*1284 FILLER_38_245
*1285 FILLER_38_251
*1286 FILLER_38_253
*1287 FILLER_38_265
*1288 FILLER_38_27
*1289 FILLER_38_277
*1290 FILLER_38_289
*1291 FILLER_38_29
*1292 FILLER_38_297
*1293 FILLER_38_3
*1294 FILLER_38_41
*1295 FILLER_38_47
*1296 FILLER_38_54
*1297 FILLER_38_66
*1298 FILLER_38_70
*1299 FILLER_38_80
*1300 FILLER_38_85
*1301 FILLER_38_97
*1302 FILLER_39_110
*1303 FILLER_39_113
*1304 FILLER_39_125
*1305 FILLER_39_137
*1306 FILLER_39_149
*1307 FILLER_39_15
*1308 FILLER_39_161
*1309 FILLER_39_167
*1310 FILLER_39_169
*1311 FILLER_39_181
*1312 FILLER_39_193
*1313 FILLER_39_20
*1314 FILLER_39_205
*1315 FILLER_39_217
*1316 FILLER_39_223
*1317 FILLER_39_225
*1318 FILLER_39_237
*1319 FILLER_39_249
*1320 FILLER_39_261
*1321 FILLER_39_273
*1322 FILLER_39_279
*1323 FILLER_39_281
*1324 FILLER_39_293
*1325 FILLER_39_3
*1326 FILLER_39_32
*1327 FILLER_39_44
*1328 FILLER_39_57
*1329 FILLER_39_69
*1330 FILLER_39_81
*1331 FILLER_39_98
*1332 FILLER_3_106
*1333 FILLER_3_118
*1334 FILLER_3_124
*1335 FILLER_3_130
*1336 FILLER_3_137
*1337 FILLER_3_144
*1338 FILLER_3_156
*1339 FILLER_3_169
*1340 FILLER_3_181
*1341 FILLER_3_19
*1342 FILLER_3_193
*1343 FILLER_3_205
*1344 FILLER_3_217
*1345 FILLER_3_223
*1346 FILLER_3_225
*1347 FILLER_3_237
*1348 FILLER_3_249
*1349 FILLER_3_261
*1350 FILLER_3_27
*1351 FILLER_3_273
*1352 FILLER_3_279
*1353 FILLER_3_281
*1354 FILLER_3_293
*1355 FILLER_3_45
*1356 FILLER_3_53
*1357 FILLER_3_57
*1358 FILLER_3_65
*1359 FILLER_3_84
*1360 FILLER_3_88
*1361 FILLER_40_103
*1362 FILLER_40_115
*1363 FILLER_40_127
*1364 FILLER_40_139
*1365 FILLER_40_141
*1366 FILLER_40_15
*1367 FILLER_40_153
*1368 FILLER_40_165
*1369 FILLER_40_177
*1370 FILLER_40_189
*1371 FILLER_40_195
*1372 FILLER_40_197
*1373 FILLER_40_209
*1374 FILLER_40_221
*1375 FILLER_40_233
*1376 FILLER_40_245
*1377 FILLER_40_251
*1378 FILLER_40_253
*1379 FILLER_40_265
*1380 FILLER_40_27
*1381 FILLER_40_277
*1382 FILLER_40_289
*1383 FILLER_40_29
*1384 FILLER_40_297
*1385 FILLER_40_3
*1386 FILLER_40_41
*1387 FILLER_40_46
*1388 FILLER_40_58
*1389 FILLER_40_77
*1390 FILLER_40_83
*1391 FILLER_40_91
*1392 FILLER_41_105
*1393 FILLER_41_111
*1394 FILLER_41_113
*1395 FILLER_41_125
*1396 FILLER_41_137
*1397 FILLER_41_149
*1398 FILLER_41_15
*1399 FILLER_41_161
*1400 FILLER_41_167
*1401 FILLER_41_169
*1402 FILLER_41_181
*1403 FILLER_41_193
*1404 FILLER_41_205
*1405 FILLER_41_217
*1406 FILLER_41_223
*1407 FILLER_41_225
*1408 FILLER_41_237
*1409 FILLER_41_249
*1410 FILLER_41_261
*1411 FILLER_41_27
*1412 FILLER_41_273
*1413 FILLER_41_279
*1414 FILLER_41_281
*1415 FILLER_41_293
*1416 FILLER_41_3
*1417 FILLER_41_39
*1418 FILLER_41_51
*1419 FILLER_41_55
*1420 FILLER_41_57
*1421 FILLER_41_69
*1422 FILLER_41_81
*1423 FILLER_41_93
*1424 FILLER_42_109
*1425 FILLER_42_121
*1426 FILLER_42_133
*1427 FILLER_42_139
*1428 FILLER_42_141
*1429 FILLER_42_15
*1430 FILLER_42_153
*1431 FILLER_42_165
*1432 FILLER_42_177
*1433 FILLER_42_189
*1434 FILLER_42_195
*1435 FILLER_42_197
*1436 FILLER_42_209
*1437 FILLER_42_221
*1438 FILLER_42_233
*1439 FILLER_42_245
*1440 FILLER_42_251
*1441 FILLER_42_253
*1442 FILLER_42_265
*1443 FILLER_42_27
*1444 FILLER_42_277
*1445 FILLER_42_289
*1446 FILLER_42_29
*1447 FILLER_42_297
*1448 FILLER_42_3
*1449 FILLER_42_41
*1450 FILLER_42_53
*1451 FILLER_42_65
*1452 FILLER_42_77
*1453 FILLER_42_83
*1454 FILLER_42_85
*1455 FILLER_42_97
*1456 FILLER_43_105
*1457 FILLER_43_111
*1458 FILLER_43_113
*1459 FILLER_43_125
*1460 FILLER_43_137
*1461 FILLER_43_149
*1462 FILLER_43_15
*1463 FILLER_43_161
*1464 FILLER_43_167
*1465 FILLER_43_169
*1466 FILLER_43_181
*1467 FILLER_43_193
*1468 FILLER_43_205
*1469 FILLER_43_217
*1470 FILLER_43_223
*1471 FILLER_43_225
*1472 FILLER_43_237
*1473 FILLER_43_249
*1474 FILLER_43_261
*1475 FILLER_43_27
*1476 FILLER_43_273
*1477 FILLER_43_279
*1478 FILLER_43_281
*1479 FILLER_43_293
*1480 FILLER_43_3
*1481 FILLER_43_39
*1482 FILLER_43_51
*1483 FILLER_43_55
*1484 FILLER_43_57
*1485 FILLER_43_69
*1486 FILLER_43_81
*1487 FILLER_43_93
*1488 FILLER_44_109
*1489 FILLER_44_121
*1490 FILLER_44_133
*1491 FILLER_44_139
*1492 FILLER_44_141
*1493 FILLER_44_15
*1494 FILLER_44_153
*1495 FILLER_44_165
*1496 FILLER_44_177
*1497 FILLER_44_189
*1498 FILLER_44_195
*1499 FILLER_44_197
*1500 FILLER_44_209
*1501 FILLER_44_221
*1502 FILLER_44_233
*1503 FILLER_44_245
*1504 FILLER_44_251
*1505 FILLER_44_253
*1506 FILLER_44_265
*1507 FILLER_44_27
*1508 FILLER_44_277
*1509 FILLER_44_289
*1510 FILLER_44_29
*1511 FILLER_44_297
*1512 FILLER_44_3
*1513 FILLER_44_41
*1514 FILLER_44_53
*1515 FILLER_44_65
*1516 FILLER_44_77
*1517 FILLER_44_83
*1518 FILLER_44_85
*1519 FILLER_44_97
*1520 FILLER_45_105
*1521 FILLER_45_111
*1522 FILLER_45_113
*1523 FILLER_45_125
*1524 FILLER_45_137
*1525 FILLER_45_149
*1526 FILLER_45_15
*1527 FILLER_45_161
*1528 FILLER_45_167
*1529 FILLER_45_169
*1530 FILLER_45_181
*1531 FILLER_45_193
*1532 FILLER_45_205
*1533 FILLER_45_217
*1534 FILLER_45_223
*1535 FILLER_45_225
*1536 FILLER_45_237
*1537 FILLER_45_249
*1538 FILLER_45_261
*1539 FILLER_45_27
*1540 FILLER_45_273
*1541 FILLER_45_279
*1542 FILLER_45_281
*1543 FILLER_45_293
*1544 FILLER_45_3
*1545 FILLER_45_39
*1546 FILLER_45_51
*1547 FILLER_45_55
*1548 FILLER_45_57
*1549 FILLER_45_69
*1550 FILLER_45_81
*1551 FILLER_45_93
*1552 FILLER_46_109
*1553 FILLER_46_121
*1554 FILLER_46_133
*1555 FILLER_46_139
*1556 FILLER_46_141
*1557 FILLER_46_153
*1558 FILLER_46_165
*1559 FILLER_46_177
*1560 FILLER_46_18
*1561 FILLER_46_189
*1562 FILLER_46_195
*1563 FILLER_46_197
*1564 FILLER_46_209
*1565 FILLER_46_221
*1566 FILLER_46_233
*1567 FILLER_46_245
*1568 FILLER_46_251
*1569 FILLER_46_253
*1570 FILLER_46_26
*1571 FILLER_46_265
*1572 FILLER_46_277
*1573 FILLER_46_289
*1574 FILLER_46_29
*1575 FILLER_46_297
*1576 FILLER_46_41
*1577 FILLER_46_53
*1578 FILLER_46_6
*1579 FILLER_46_65
*1580 FILLER_46_77
*1581 FILLER_46_83
*1582 FILLER_46_85
*1583 FILLER_46_97
*1584 FILLER_47_105
*1585 FILLER_47_111
*1586 FILLER_47_113
*1587 FILLER_47_125
*1588 FILLER_47_137
*1589 FILLER_47_149
*1590 FILLER_47_15
*1591 FILLER_47_161
*1592 FILLER_47_167
*1593 FILLER_47_169
*1594 FILLER_47_181
*1595 FILLER_47_193
*1596 FILLER_47_205
*1597 FILLER_47_217
*1598 FILLER_47_223
*1599 FILLER_47_225
*1600 FILLER_47_237
*1601 FILLER_47_249
*1602 FILLER_47_261
*1603 FILLER_47_27
*1604 FILLER_47_273
*1605 FILLER_47_279
*1606 FILLER_47_281
*1607 FILLER_47_293
*1608 FILLER_47_3
*1609 FILLER_47_39
*1610 FILLER_47_51
*1611 FILLER_47_55
*1612 FILLER_47_57
*1613 FILLER_47_69
*1614 FILLER_47_81
*1615 FILLER_47_93
*1616 FILLER_48_109
*1617 FILLER_48_121
*1618 FILLER_48_133
*1619 FILLER_48_139
*1620 FILLER_48_141
*1621 FILLER_48_15
*1622 FILLER_48_153
*1623 FILLER_48_165
*1624 FILLER_48_177
*1625 FILLER_48_189
*1626 FILLER_48_195
*1627 FILLER_48_197
*1628 FILLER_48_209
*1629 FILLER_48_221
*1630 FILLER_48_233
*1631 FILLER_48_245