*SPEF "ieee 1481-1999"
*DESIGN "zoechip"
*DATE "11:11:11 Fri 11 11, 1111"
*VENDOR "OpenRCX"
*PROGRAM "Parallel Extraction"
*VERSION "1.0"
*DESIGN_FLOW "NAME_SCOPE LOCAL" "PIN_CAP NONE"
*DIVIDER /
*DELIMITER :
*BUS_DELIMITER []
*T_UNIT 1 NS
*C_UNIT 1 PF
*R_UNIT 1 OHM
*L_UNIT 1 HENRY

*NAME_MAP
*1 io_in[0]
*2 io_in[1]
*3 io_in[2]
*4 io_in[3]
*5 io_in[4]
*6 io_in[5]
*7 io_in[6]
*8 io_in[7]
*9 io_out[0]
*10 io_out[1]
*11 io_out[2]
*12 io_out[3]
*13 io_out[4]
*14 io_out[5]
*15 io_out[6]
*16 net4
*19 A
*20 B
*21 C
*22 D
*23 F
*24 _00_
*25 clknet_0_F
*26 clknet_0_io_in[0]
*27 clknet_1_0__leaf_F
*28 clknet_1_0__leaf_io_in[0]
*29 clknet_1_1__leaf_F
*30 clknet_1_1__leaf_io_in[0]
*31 net1
*32 net2
*33 net3
*34 FILLER_0_109
*35 FILLER_0_113
*36 FILLER_0_125
*37 FILLER_0_137
*38 FILLER_0_141
*39 FILLER_0_15
*40 FILLER_0_153
*41 FILLER_0_165
*42 FILLER_0_169
*43 FILLER_0_181
*44 FILLER_0_193
*45 FILLER_0_197
*46 FILLER_0_209
*47 FILLER_0_221
*48 FILLER_0_225
*49 FILLER_0_237
*50 FILLER_0_249
*51 FILLER_0_253
*52 FILLER_0_265
*53 FILLER_0_27
*54 FILLER_0_277
*55 FILLER_0_281
*56 FILLER_0_29
*57 FILLER_0_293
*58 FILLER_0_3
*59 FILLER_0_41
*60 FILLER_0_53
*61 FILLER_0_57
*62 FILLER_0_69
*63 FILLER_0_81
*64 FILLER_0_85
*65 FILLER_0_97
*66 FILLER_10_109
*67 FILLER_10_121
*68 FILLER_10_133
*69 FILLER_10_139
*70 FILLER_10_141
*71 FILLER_10_15
*72 FILLER_10_153
*73 FILLER_10_165
*74 FILLER_10_177
*75 FILLER_10_189
*76 FILLER_10_195
*77 FILLER_10_197
*78 FILLER_10_209
*79 FILLER_10_221
*80 FILLER_10_233
*81 FILLER_10_245
*82 FILLER_10_251
*83 FILLER_10_253
*84 FILLER_10_265
*85 FILLER_10_27
*86 FILLER_10_277
*87 FILLER_10_289
*88 FILLER_10_29
*89 FILLER_10_297
*90 FILLER_10_3
*91 FILLER_10_41
*92 FILLER_10_53
*93 FILLER_10_65
*94 FILLER_10_77
*95 FILLER_10_83
*96 FILLER_10_85
*97 FILLER_10_97
*98 FILLER_11_105
*99 FILLER_11_111
*100 FILLER_11_113
*101 FILLER_11_125
*102 FILLER_11_137
*103 FILLER_11_149
*104 FILLER_11_15
*105 FILLER_11_161
*106 FILLER_11_167
*107 FILLER_11_169
*108 FILLER_11_181
*109 FILLER_11_193
*110 FILLER_11_205
*111 FILLER_11_217
*112 FILLER_11_223
*113 FILLER_11_225
*114 FILLER_11_237
*115 FILLER_11_249
*116 FILLER_11_261
*117 FILLER_11_27
*118 FILLER_11_273
*119 FILLER_11_279
*120 FILLER_11_281
*121 FILLER_11_293
*122 FILLER_11_3
*123 FILLER_11_39
*124 FILLER_11_51
*125 FILLER_11_55
*126 FILLER_11_57
*127 FILLER_11_69
*128 FILLER_11_81
*129 FILLER_11_93
*130 FILLER_12_109
*131 FILLER_12_11
*132 FILLER_12_121
*133 FILLER_12_133
*134 FILLER_12_139
*135 FILLER_12_141
*136 FILLER_12_153
*137 FILLER_12_165
*138 FILLER_12_177
*139 FILLER_12_189
*140 FILLER_12_195
*141 FILLER_12_197
*142 FILLER_12_209
*143 FILLER_12_221
*144 FILLER_12_23
*145 FILLER_12_233
*146 FILLER_12_245
*147 FILLER_12_251
*148 FILLER_12_253
*149 FILLER_12_265
*150 FILLER_12_27
*151 FILLER_12_277
*152 FILLER_12_289
*153 FILLER_12_29
*154 FILLER_12_297
*155 FILLER_12_3
*156 FILLER_12_41
*157 FILLER_12_53
*158 FILLER_12_65
*159 FILLER_12_77
*160 FILLER_12_83
*161 FILLER_12_85
*162 FILLER_12_97
*163 FILLER_13_105
*164 FILLER_13_111
*165 FILLER_13_113
*166 FILLER_13_125
*167 FILLER_13_137
*168 FILLER_13_149
*169 FILLER_13_15
*170 FILLER_13_161
*171 FILLER_13_167
*172 FILLER_13_169
*173 FILLER_13_181
*174 FILLER_13_193
*175 FILLER_13_205
*176 FILLER_13_217
*177 FILLER_13_223
*178 FILLER_13_225
*179 FILLER_13_237
*180 FILLER_13_249
*181 FILLER_13_261
*182 FILLER_13_27
*183 FILLER_13_273
*184 FILLER_13_279
*185 FILLER_13_281
*186 FILLER_13_293
*187 FILLER_13_3
*188 FILLER_13_39
*189 FILLER_13_51
*190 FILLER_13_55
*191 FILLER_13_57
*192 FILLER_13_69
*193 FILLER_13_81
*194 FILLER_13_93
*195 FILLER_14_109
*196 FILLER_14_121
*197 FILLER_14_133
*198 FILLER_14_139
*199 FILLER_14_141
*200 FILLER_14_15
*201 FILLER_14_153
*202 FILLER_14_165
*203 FILLER_14_177
*204 FILLER_14_189
*205 FILLER_14_195
*206 FILLER_14_197
*207 FILLER_14_209
*208 FILLER_14_221
*209 FILLER_14_233
*210 FILLER_14_245
*211 FILLER_14_251
*212 FILLER_14_253
*213 FILLER_14_265
*214 FILLER_14_27
*215 FILLER_14_277
*216 FILLER_14_289
*217 FILLER_14_29
*218 FILLER_14_297
*219 FILLER_14_3
*220 FILLER_14_41
*221 FILLER_14_53
*222 FILLER_14_65
*223 FILLER_14_77
*224 FILLER_14_83
*225 FILLER_14_85
*226 FILLER_14_97
*227 FILLER_15_105
*228 FILLER_15_111
*229 FILLER_15_113
*230 FILLER_15_125
*231 FILLER_15_137
*232 FILLER_15_149
*233 FILLER_15_15
*234 FILLER_15_161
*235 FILLER_15_167
*236 FILLER_15_169
*237 FILLER_15_181
*238 FILLER_15_193
*239 FILLER_15_205
*240 FILLER_15_217
*241 FILLER_15_223
*242 FILLER_15_225
*243 FILLER_15_237
*244 FILLER_15_249
*245 FILLER_15_261
*246 FILLER_15_27
*247 FILLER_15_273
*248 FILLER_15_279
*249 FILLER_15_281
*250 FILLER_15_293
*251 FILLER_15_3
*252 FILLER_15_39
*253 FILLER_15_51
*254 FILLER_15_55
*255 FILLER_15_57
*256 FILLER_15_69
*257 FILLER_15_81
*258 FILLER_15_93
*259 FILLER_16_109
*260 FILLER_16_121
*261 FILLER_16_133
*262 FILLER_16_139
*263 FILLER_16_141
*264 FILLER_16_153
*265 FILLER_16_165
*266 FILLER_16_177
*267 FILLER_16_189
*268 FILLER_16_195
*269 FILLER_16_197
*270 FILLER_16_209
*271 FILLER_16_221
*272 FILLER_16_233
*273 FILLER_16_24
*274 FILLER_16_245
*275 FILLER_16_251
*276 FILLER_16_253
*277 FILLER_16_265
*278 FILLER_16_277
*279 FILLER_16_289
*280 FILLER_16_29
*281 FILLER_16_297
*282 FILLER_16_3
*283 FILLER_16_41
*284 FILLER_16_53
*285 FILLER_16_65
*286 FILLER_16_77
*287 FILLER_16_83
*288 FILLER_16_85
*289 FILLER_16_97
*290 FILLER_17_105
*291 FILLER_17_111
*292 FILLER_17_113
*293 FILLER_17_125
*294 FILLER_17_137
*295 FILLER_17_149
*296 FILLER_17_161
*297 FILLER_17_167
*298 FILLER_17_169
*299 FILLER_17_181
*300 FILLER_17_193
*301 FILLER_17_205
*302 FILLER_17_217
*303 FILLER_17_223
*304 FILLER_17_225
*305 FILLER_17_237
*306 FILLER_17_249
*307 FILLER_17_261
*308 FILLER_17_27
*309 FILLER_17_273
*310 FILLER_17_279
*311 FILLER_17_281
*312 FILLER_17_293
*313 FILLER_17_3
*314 FILLER_17_39
*315 FILLER_17_51
*316 FILLER_17_55
*317 FILLER_17_57
*318 FILLER_17_69
*319 FILLER_17_81
*320 FILLER_17_93
*321 FILLER_18_109
*322 FILLER_18_121
*323 FILLER_18_133
*324 FILLER_18_139
*325 FILLER_18_141
*326 FILLER_18_15
*327 FILLER_18_153
*328 FILLER_18_165
*329 FILLER_18_177
*330 FILLER_18_189
*331 FILLER_18_195
*332 FILLER_18_197
*333 FILLER_18_209
*334 FILLER_18_221
*335 FILLER_18_233
*336 FILLER_18_245
*337 FILLER_18_251
*338 FILLER_18_253
*339 FILLER_18_265
*340 FILLER_18_27
*341 FILLER_18_277
*342 FILLER_18_289
*343 FILLER_18_29
*344 FILLER_18_297
*345 FILLER_18_3
*346 FILLER_18_41
*347 FILLER_18_53
*348 FILLER_18_65
*349 FILLER_18_77
*350 FILLER_18_83
*351 FILLER_18_85
*352 FILLER_18_97
*353 FILLER_19_105
*354 FILLER_19_111
*355 FILLER_19_113
*356 FILLER_19_125
*357 FILLER_19_137
*358 FILLER_19_149
*359 FILLER_19_15
*360 FILLER_19_161
*361 FILLER_19_167
*362 FILLER_19_169
*363 FILLER_19_181
*364 FILLER_19_193
*365 FILLER_19_205
*366 FILLER_19_217
*367 FILLER_19_223
*368 FILLER_19_225
*369 FILLER_19_237
*370 FILLER_19_249
*371 FILLER_19_261
*372 FILLER_19_27
*373 FILLER_19_273
*374 FILLER_19_279
*375 FILLER_19_281
*376 FILLER_19_293
*377 FILLER_19_3
*378 FILLER_19_39
*379 FILLER_19_51
*380 FILLER_19_55
*381 FILLER_19_57
*382 FILLER_19_69
*383 FILLER_19_81
*384 FILLER_19_93
*385 FILLER_1_105
*386 FILLER_1_111
*387 FILLER_1_113
*388 FILLER_1_125
*389 FILLER_1_137
*390 FILLER_1_149
*391 FILLER_1_161
*392 FILLER_1_167
*393 FILLER_1_169
*394 FILLER_1_181
*395 FILLER_1_193
*396 FILLER_1_205
*397 FILLER_1_21
*398 FILLER_1_217
*399 FILLER_1_223
*400 FILLER_1_225
*401 FILLER_1_237
*402 FILLER_1_249
*403 FILLER_1_261
*404 FILLER_1_273
*405 FILLER_1_279
*406 FILLER_1_281
*407 FILLER_1_293
*408 FILLER_1_3
*409 FILLER_1_33
*410 FILLER_1_45
*411 FILLER_1_53
*412 FILLER_1_57
*413 FILLER_1_69
*414 FILLER_1_81
*415 FILLER_1_9
*416 FILLER_1_93
*417 FILLER_20_109
*418 FILLER_20_121
*419 FILLER_20_133
*420 FILLER_20_139
*421 FILLER_20_141
*422 FILLER_20_15
*423 FILLER_20_153
*424 FILLER_20_165
*425 FILLER_20_177
*426 FILLER_20_189
*427 FILLER_20_195
*428 FILLER_20_197
*429 FILLER_20_209
*430 FILLER_20_221
*431 FILLER_20_233
*432 FILLER_20_245
*433 FILLER_20_251
*434 FILLER_20_253
*435 FILLER_20_265
*436 FILLER_20_27
*437 FILLER_20_277
*438 FILLER_20_289
*439 FILLER_20_29
*440 FILLER_20_297
*441 FILLER_20_3
*442 FILLER_20_41
*443 FILLER_20_53
*444 FILLER_20_65
*445 FILLER_20_77
*446 FILLER_20_83
*447 FILLER_20_85
*448 FILLER_20_97
*449 FILLER_21_105
*450 FILLER_21_111
*451 FILLER_21_113
*452 FILLER_21_125
*453 FILLER_21_137
*454 FILLER_21_149
*455 FILLER_21_15
*456 FILLER_21_161
*457 FILLER_21_167
*458 FILLER_21_169
*459 FILLER_21_181
*460 FILLER_21_193
*461 FILLER_21_205
*462 FILLER_21_217
*463 FILLER_21_223
*464 FILLER_21_225
*465 FILLER_21_237
*466 FILLER_21_249
*467 FILLER_21_261
*468 FILLER_21_27
*469 FILLER_21_273
*470 FILLER_21_279
*471 FILLER_21_281
*472 FILLER_21_293
*473 FILLER_21_3
*474 FILLER_21_39
*475 FILLER_21_51
*476 FILLER_21_55
*477 FILLER_21_57
*478 FILLER_21_69
*479 FILLER_21_81
*480 FILLER_21_93
*481 FILLER_22_109
*482 FILLER_22_121
*483 FILLER_22_133
*484 FILLER_22_139
*485 FILLER_22_141
*486 FILLER_22_15
*487 FILLER_22_153
*488 FILLER_22_165
*489 FILLER_22_177
*490 FILLER_22_189
*491 FILLER_22_195
*492 FILLER_22_197
*493 FILLER_22_209
*494 FILLER_22_221
*495 FILLER_22_233
*496 FILLER_22_245
*497 FILLER_22_251
*498 FILLER_22_253
*499 FILLER_22_265
*500 FILLER_22_27
*501 FILLER_22_277
*502 FILLER_22_289
*503 FILLER_22_29
*504 FILLER_22_297
*505 FILLER_22_3
*506 FILLER_22_41
*507 FILLER_22_53
*508 FILLER_22_65
*509 FILLER_22_77
*510 FILLER_22_83
*511 FILLER_22_85
*512 FILLER_22_97
*513 FILLER_23_105
*514 FILLER_23_111
*515 FILLER_23_113
*516 FILLER_23_125
*517 FILLER_23_137
*518 FILLER_23_149
*519 FILLER_23_15
*520 FILLER_23_161
*521 FILLER_23_167
*522 FILLER_23_169
*523 FILLER_23_181
*524 FILLER_23_193
*525 FILLER_23_205
*526 FILLER_23_217
*527 FILLER_23_223
*528 FILLER_23_225
*529 FILLER_23_237
*530 FILLER_23_249
*531 FILLER_23_261
*532 FILLER_23_27
*533 FILLER_23_273
*534 FILLER_23_279
*535 FILLER_23_281
*536 FILLER_23_293
*537 FILLER_23_3
*538 FILLER_23_39
*539 FILLER_23_51
*540 FILLER_23_55
*541 FILLER_23_57
*542 FILLER_23_69
*543 FILLER_23_81
*544 FILLER_23_93
*545 FILLER_24_109
*546 FILLER_24_121
*547 FILLER_24_133
*548 FILLER_24_139
*549 FILLER_24_141
*550 FILLER_24_153
*551 FILLER_24_16
*552 FILLER_24_165
*553 FILLER_24_177
*554 FILLER_24_189
*555 FILLER_24_195
*556 FILLER_24_197
*557 FILLER_24_209
*558 FILLER_24_221
*559 FILLER_24_233
*560 FILLER_24_245
*561 FILLER_24_251
*562 FILLER_24_253
*563 FILLER_24_265
*564 FILLER_24_277
*565 FILLER_24_289
*566 FILLER_24_29
*567 FILLER_24_297
*568 FILLER_24_41
*569 FILLER_24_53
*570 FILLER_24_65
*571 FILLER_24_77
*572 FILLER_24_83
*573 FILLER_24_85
*574 FILLER_24_97
*575 FILLER_25_105
*576 FILLER_25_111
*577 FILLER_25_113
*578 FILLER_25_125
*579 FILLER_25_137
*580 FILLER_25_149
*581 FILLER_25_16
*582 FILLER_25_161
*583 FILLER_25_167
*584 FILLER_25_169
*585 FILLER_25_181
*586 FILLER_25_193
*587 FILLER_25_205
*588 FILLER_25_217
*589 FILLER_25_223
*590 FILLER_25_225
*591 FILLER_25_237
*592 FILLER_25_249
*593 FILLER_25_261
*594 FILLER_25_273
*595 FILLER_25_279
*596 FILLER_25_28
*597 FILLER_25_281
*598 FILLER_25_293
*599 FILLER_25_40
*600 FILLER_25_52
*601 FILLER_25_57
*602 FILLER_25_69
*603 FILLER_25_81
*604 FILLER_25_93
*605 FILLER_26_109
*606 FILLER_26_121
*607 FILLER_26_133
*608 FILLER_26_139
*609 FILLER_26_141
*610 FILLER_26_153
*611 FILLER_26_165
*612 FILLER_26_177
*613 FILLER_26_189
*614 FILLER_26_195
*615 FILLER_26_197
*616 FILLER_26_209
*617 FILLER_26_21
*618 FILLER_26_221
*619 FILLER_26_233
*620 FILLER_26_245
*621 FILLER_26_251
*622 FILLER_26_253
*623 FILLER_26_265
*624 FILLER_26_27
*625 FILLER_26_277
*626 FILLER_26_289
*627 FILLER_26_29
*628 FILLER_26_297
*629 FILLER_26_3
*630 FILLER_26_41
*631 FILLER_26_53
*632 FILLER_26_65
*633 FILLER_26_77
*634 FILLER_26_83
*635 FILLER_26_85
*636 FILLER_26_9
*637 FILLER_26_97
*638 FILLER_27_105
*639 FILLER_27_111
*640 FILLER_27_113
*641 FILLER_27_125
*642 FILLER_27_137
*643 FILLER_27_149
*644 FILLER_27_161
*645 FILLER_27_167
*646 FILLER_27_169
*647 FILLER_27_181
*648 FILLER_27_193
*649 FILLER_27_205
*650 FILLER_27_217
*651 FILLER_27_223
*652 FILLER_27_225
*653 FILLER_27_237
*654 FILLER_27_249
*655 FILLER_27_25
*656 FILLER_27_261
*657 FILLER_27_273
*658 FILLER_27_279
*659 FILLER_27_281
*660 FILLER_27_293
*661 FILLER_27_37
*662 FILLER_27_49
*663 FILLER_27_55
*664 FILLER_27_57
*665 FILLER_27_69
*666 FILLER_27_81
*667 FILLER_27_93
*668 FILLER_28_109
*669 FILLER_28_121
*670 FILLER_28_133
*671 FILLER_28_139
*672 FILLER_28_141
*673 FILLER_28_15
*674 FILLER_28_153
*675 FILLER_28_165
*676 FILLER_28_177
*677 FILLER_28_189
*678 FILLER_28_195
*679 FILLER_28_197
*680 FILLER_28_209
*681 FILLER_28_221
*682 FILLER_28_233
*683 FILLER_28_245
*684 FILLER_28_251
*685 FILLER_28_253
*686 FILLER_28_265
*687 FILLER_28_27
*688 FILLER_28_277
*689 FILLER_28_289
*690 FILLER_28_29
*691 FILLER_28_297
*692 FILLER_28_3
*693 FILLER_28_41
*694 FILLER_28_53
*695 FILLER_28_65
*696 FILLER_28_77
*697 FILLER_28_83
*698 FILLER_28_85
*699 FILLER_28_97
*700 FILLER_29_105
*701 FILLER_29_111
*702 FILLER_29_113
*703 FILLER_29_125
*704 FILLER_29_137
*705 FILLER_29_149
*706 FILLER_29_15
*707 FILLER_29_161
*708 FILLER_29_167
*709 FILLER_29_169
*710 FILLER_29_181
*711 FILLER_29_193
*712 FILLER_29_205
*713 FILLER_29_217
*714 FILLER_29_223
*715 FILLER_29_225
*716 FILLER_29_237
*717 FILLER_29_249
*718 FILLER_29_261
*719 FILLER_29_27
*720 FILLER_29_273
*721 FILLER_29_279
*722 FILLER_29_281
*723 FILLER_29_293
*724 FILLER_29_3
*725 FILLER_29_39
*726 FILLER_29_51
*727 FILLER_29_55
*728 FILLER_29_57
*729 FILLER_29_69
*730 FILLER_29_81
*731 FILLER_29_93
*732 FILLER_2_109
*733 FILLER_2_121
*734 FILLER_2_133
*735 FILLER_2_139
*736 FILLER_2_141
*737 FILLER_2_15
*738 FILLER_2_153
*739 FILLER_2_165
*740 FILLER_2_177
*741 FILLER_2_189
*742 FILLER_2_195
*743 FILLER_2_197
*744 FILLER_2_209
*745 FILLER_2_221
*746 FILLER_2_233
*747 FILLER_2_245
*748 FILLER_2_251
*749 FILLER_2_253
*750 FILLER_2_265
*751 FILLER_2_27
*752 FILLER_2_277
*753 FILLER_2_289
*754 FILLER_2_29
*755 FILLER_2_297
*756 FILLER_2_3
*757 FILLER_2_41
*758 FILLER_2_53
*759 FILLER_2_65
*760 FILLER_2_77
*761 FILLER_2_83
*762 FILLER_2_85
*763 FILLER_2_97
*764 FILLER_30_109
*765 FILLER_30_121
*766 FILLER_30_133
*767 FILLER_30_139
*768 FILLER_30_141
*769 FILLER_30_15
*770 FILLER_30_153
*771 FILLER_30_165
*772 FILLER_30_177
*773 FILLER_30_189
*774 FILLER_30_195
*775 FILLER_30_197
*776 FILLER_30_209
*777 FILLER_30_221
*778 FILLER_30_233
*779 FILLER_30_245
*780 FILLER_30_251
*781 FILLER_30_253
*782 FILLER_30_265
*783 FILLER_30_27
*784 FILLER_30_277
*785 FILLER_30_289
*786 FILLER_30_29
*787 FILLER_30_297
*788 FILLER_30_3
*789 FILLER_30_41
*790 FILLER_30_53
*791 FILLER_30_65
*792 FILLER_30_77
*793 FILLER_30_83
*794 FILLER_30_85
*795 FILLER_30_97
*796 FILLER_31_105
*797 FILLER_31_111
*798 FILLER_31_113
*799 FILLER_31_125
*800 FILLER_31_137
*801 FILLER_31_149
*802 FILLER_31_161
*803 FILLER_31_167
*804 FILLER_31_169
*805 FILLER_31_181
*806 FILLER_31_193
*807 FILLER_31_205
*808 FILLER_31_217
*809 FILLER_31_223
*810 FILLER_31_225
*811 FILLER_31_237
*812 FILLER_31_249
*813 FILLER_31_261
*814 FILLER_31_27
*815 FILLER_31_273
*816 FILLER_31_279
*817 FILLER_31_281
*818 FILLER_31_293
*819 FILLER_31_3
*820 FILLER_31_39
*821 FILLER_31_51
*822 FILLER_31_55
*823 FILLER_31_57
*824 FILLER_31_69
*825 FILLER_31_81
*826 FILLER_31_93
*827 FILLER_32_109
*828 FILLER_32_121
*829 FILLER_32_133
*830 FILLER_32_139
*831 FILLER_32_141
*832 FILLER_32_153
*833 FILLER_32_165
*834 FILLER_32_177
*835 FILLER_32_189
*836 FILLER_32_195
*837 FILLER_32_197
*838 FILLER_32_209
*839 FILLER_32_21
*840 FILLER_32_221
*841 FILLER_32_233
*842 FILLER_32_245
*843 FILLER_32_251
*844 FILLER_32_253
*845 FILLER_32_265
*846 FILLER_32_27
*847 FILLER_32_277
*848 FILLER_32_289
*849 FILLER_32_29
*850 FILLER_32_297
*851 FILLER_32_3
*852 FILLER_32_41
*853 FILLER_32_53
*854 FILLER_32_65
*855 FILLER_32_77
*856 FILLER_32_83
*857 FILLER_32_85
*858 FILLER_32_9
*859 FILLER_32_97
*860 FILLER_33_10
*861 FILLER_33_105
*862 FILLER_33_111
*863 FILLER_33_113
*864 FILLER_33_125
*865 FILLER_33_137
*866 FILLER_33_149
*867 FILLER_33_161
*868 FILLER_33_167
*869 FILLER_33_169
*870 FILLER_33_181
*871 FILLER_33_193
*872 FILLER_33_205
*873 FILLER_33_217
*874 FILLER_33_22
*875 FILLER_33_223
*876 FILLER_33_225
*877 FILLER_33_237
*878 FILLER_33_249
*879 FILLER_33_261
*880 FILLER_33_273
*881 FILLER_33_279
*882 FILLER_33_281
*883 FILLER_33_293
*884 FILLER_33_34
*885 FILLER_33_46
*886 FILLER_33_54
*887 FILLER_33_57
*888 FILLER_33_69
*889 FILLER_33_81
*890 FILLER_33_93
*891 FILLER_34_109
*892 FILLER_34_121
*893 FILLER_34_133
*894 FILLER_34_139
*895 FILLER_34_141
*896 FILLER_34_15
*897 FILLER_34_153
*898 FILLER_34_165
*899 FILLER_34_177
*900 FILLER_34_189
*901 FILLER_34_195
*902 FILLER_34_197
*903 FILLER_34_209
*904 FILLER_34_221
*905 FILLER_34_233
*906 FILLER_34_245
*907 FILLER_34_251
*908 FILLER_34_253
*909 FILLER_34_265
*910 FILLER_34_27
*911 FILLER_34_277
*912 FILLER_34_289
*913 FILLER_34_29
*914 FILLER_34_297
*915 FILLER_34_3
*916 FILLER_34_41
*917 FILLER_34_53
*918 FILLER_34_65
*919 FILLER_34_77
*920 FILLER_34_83
*921 FILLER_34_85
*922 FILLER_34_97
*923 FILLER_35_105
*924 FILLER_35_111
*925 FILLER_35_113
*926 FILLER_35_125
*927 FILLER_35_137
*928 FILLER_35_149
*929 FILLER_35_15
*930 FILLER_35_161
*931 FILLER_35_167
*932 FILLER_35_169
*933 FILLER_35_181
*934 FILLER_35_193
*935 FILLER_35_205
*936 FILLER_35_217
*937 FILLER_35_223
*938 FILLER_35_225
*939 FILLER_35_237
*940 FILLER_35_249
*941 FILLER_35_261
*942 FILLER_35_27
*943 FILLER_35_273
*944 FILLER_35_279
*945 FILLER_35_281
*946 FILLER_35_293
*947 FILLER_35_3
*948 FILLER_35_39
*949 FILLER_35_51
*950 FILLER_35_55
*951 FILLER_35_57
*952 FILLER_35_69
*953 FILLER_35_81
*954 FILLER_35_93
*955 FILLER_36_109
*956 FILLER_36_121
*957 FILLER_36_133
*958 FILLER_36_139
*959 FILLER_36_141
*960 FILLER_36_15
*961 FILLER_36_153
*962 FILLER_36_165
*963 FILLER_36_177
*964 FILLER_36_189
*965 FILLER_36_195
*966 FILLER_36_197
*967 FILLER_36_209
*968 FILLER_36_221
*969 FILLER_36_233
*970 FILLER_36_245
*971 FILLER_36_251
*972 FILLER_36_253
*973 FILLER_36_265
*974 FILLER_36_27
*975 FILLER_36_277
*976 FILLER_36_289
*977 FILLER_36_29
*978 FILLER_36_297
*979 FILLER_36_3
*980 FILLER_36_41
*981 FILLER_36_53
*982 FILLER_36_65
*983 FILLER_36_77
*984 FILLER_36_83
*985 FILLER_36_85
*986 FILLER_36_97
*987 FILLER_37_105
*988 FILLER_37_111
*989 FILLER_37_113
*990 FILLER_37_125
*991 FILLER_37_137
*992 FILLER_37_149
*993 FILLER_37_161
*994 FILLER_37_167
*995 FILLER_37_169
*996 FILLER_37_181
*997 FILLER_37_193
*998 FILLER_37_205
*999 FILLER_37_217
*1000 FILLER_37_223
*1001 FILLER_37_225
*1002 FILLER_37_237
*1003 FILLER_37_249
*1004 FILLER_37_261
*1005 FILLER_37_273
*1006 FILLER_37_279
*1007 FILLER_37_281
*1008 FILLER_37_293
*1009 FILLER_37_3
*1010 FILLER_37_30
*1011 FILLER_37_42
*1012 FILLER_37_54
*1013 FILLER_37_57
*1014 FILLER_37_69
*1015 FILLER_37_81
*1016 FILLER_37_9
*1017 FILLER_37_93
*1018 FILLER_38_109
*1019 FILLER_38_121
*1020 FILLER_38_133
*1021 FILLER_38_139
*1022 FILLER_38_141
*1023 FILLER_38_15
*1024 FILLER_38_153
*1025 FILLER_38_165
*1026 FILLER_38_177
*1027 FILLER_38_189
*1028 FILLER_38_195
*1029 FILLER_38_197
*1030 FILLER_38_209
*1031 FILLER_38_221
*1032 FILLER_38_233
*1033 FILLER_38_245
*1034 FILLER_38_251
*1035 FILLER_38_253
*1036 FILLER_38_265
*1037 FILLER_38_27
*1038 FILLER_38_277
*1039 FILLER_38_289
*1040 FILLER_38_29
*1041 FILLER_38_297
*1042 FILLER_38_3
*1043 FILLER_38_41
*1044 FILLER_38_53
*1045 FILLER_38_65
*1046 FILLER_38_77
*1047 FILLER_38_83
*1048 FILLER_38_85
*1049 FILLER_38_97
*1050 FILLER_39_105
*1051 FILLER_39_111
*1052 FILLER_39_113
*1053 FILLER_39_125
*1054 FILLER_39_137
*1055 FILLER_39_149
*1056 FILLER_39_15
*1057 FILLER_39_161
*1058 FILLER_39_167
*1059 FILLER_39_169
*1060 FILLER_39_181
*1061 FILLER_39_193
*1062 FILLER_39_205
*1063 FILLER_39_217
*1064 FILLER_39_223
*1065 FILLER_39_225
*1066 FILLER_39_237
*1067 FILLER_39_249
*1068 FILLER_39_261
*1069 FILLER_39_27
*1070 FILLER_39_273
*1071 FILLER_39_279
*1072 FILLER_39_281
*1073 FILLER_39_293
*1074 FILLER_39_3
*1075 FILLER_39_39
*1076 FILLER_39_51
*1077 FILLER_39_55
*1078 FILLER_39_57
*1079 FILLER_39_69
*1080 FILLER_39_81
*1081 FILLER_39_93
*1082 FILLER_3_105
*1083 FILLER_3_111
*1084 FILLER_3_113
*1085 FILLER_3_125
*1086 FILLER_3_137
*1087 FILLER_3_149
*1088 FILLER_3_15
*1089 FILLER_3_161
*1090 FILLER_3_167
*1091 FILLER_3_169
*1092 FILLER_3_181
*1093 FILLER_3_193
*1094 FILLER_3_205
*1095 FILLER_3_217
*1096 FILLER_3_223
*1097 FILLER_3_225
*1098 FILLER_3_237
*1099 FILLER_3_249
*1100 FILLER_3_261
*1101 FILLER_3_27
*1102 FILLER_3_273
*1103 FILLER_3_279
*1104 FILLER_3_281
*1105 FILLER_3_293
*1106 FILLER_3_3
*1107 FILLER_3_39
*1108 FILLER_3_51
*1109 FILLER_3_55
*1110 FILLER_3_57
*1111 FILLER_3_69
*1112 FILLER_3_81
*1113 FILLER_3_93
*1114 FILLER_40_109
*1115 FILLER_40_121
*1116 FILLER_40_133
*1117 FILLER_40_139
*1118 FILLER_40_141
*1119 FILLER_40_153
*1120 FILLER_40_165
*1121 FILLER_40_177
*1122 FILLER_40_189
*1123 FILLER_40_195
*1124 FILLER_40_197
*1125 FILLER_40_209
*1126 FILLER_40_21
*1127 FILLER_40_221
*1128 FILLER_40_233
*1129 FILLER_40_245
*1130 FILLER_40_251
*1131 FILLER_40_253
*1132 FILLER_40_265
*1133 FILLER_40_27
*1134 FILLER_40_277
*1135 FILLER_40_289
*1136 FILLER_40_29
*1137 FILLER_40_297
*1138 FILLER_40_3
*1139 FILLER_40_41
*1140 FILLER_40_53
*1141 FILLER_40_65
*1142 FILLER_40_77
*1143 FILLER_40_83
*1144 FILLER_40_85
*1145 FILLER_40_9
*1146 FILLER_40_97
*1147 FILLER_41_105
*1148 FILLER_41_111
*1149 FILLER_41_113
*1150 FILLER_41_125
*1151 FILLER_41_137
*1152 FILLER_41_149
*1153 FILLER_41_161
*1154 FILLER_41_167
*1155 FILLER_41_169
*1156 FILLER_41_181
*1157 FILLER_41_193
*1158 FILLER_41_205
*1159 FILLER_41_217
*1160 FILLER_41_223
*1161 FILLER_41_225
*1162 FILLER_41_237
*1163 FILLER_41_249
*1164 FILLER_41_261
*1165 FILLER_41_27
*1166 FILLER_41_273
*1167 FILLER_41_279
*1168 FILLER_41_281
*1169 FILLER_41_293
*1170 FILLER_41_3
*1171 FILLER_41_39
*1172 FILLER_41_51
*1173 FILLER_41_55
*1174 FILLER_41_57
*1175 FILLER_41_69
*1176 FILLER_41_81
*1177 FILLER_41_93
*1178 FILLER_42_109
*1179 FILLER_42_121
*1180 FILLER_42_133
*1181 FILLER_42_139
*1182 FILLER_42_141
*1183 FILLER_42_15
*1184 FILLER_42_153
*1185 FILLER_42_165
*1186 FILLER_42_177
*1187 FILLER_42_189
*1188 FILLER_42_195
*1189 FILLER_42_197
*1190 FILLER_42_209
*1191 FILLER_42_221
*1192 FILLER_42_233
*1193 FILLER_42_245
*1194 FILLER_42_251
*1195 FILLER_42_253
*1196 FILLER_42_265
*1197 FILLER_42_27
*1198 FILLER_42_277
*1199 FILLER_42_289
*1200 FILLER_42_29
*1201 FILLER_42_297
*1202 FILLER_42_3
*1203 FILLER_42_41
*1204 FILLER_42_53
*1205 FILLER_42_65
*1206 FILLER_42_77
*1207 FILLER_42_83
*1208 FILLER_42_85
*1209 FILLER_42_97
*1210 FILLER_43_105
*1211 FILLER_43_111
*1212 FILLER_43_113
*1213 FILLER_43_125
*1214 FILLER_43_137
*1215 FILLER_43_149
*1216 FILLER_43_15
*1217 FILLER_43_161
*1218 FILLER_43_167
*1219 FILLER_43_169
*1220 FILLER_43_181
*1221 FILLER_43_193
*1222 FILLER_43_205
*1223 FILLER_43_217
*1224 FILLER_43_223
*1225 FILLER_43_225
*1226 FILLER_43_237
*1227 FILLER_43_249
*1228 FILLER_43_261
*1229 FILLER_43_27
*1230 FILLER_43_273
*1231 FILLER_43_279
*1232 FILLER_43_281
*1233 FILLER_43_293
*1234 FILLER_43_3
*1235 FILLER_43_39
*1236 FILLER_43_51
*1237 FILLER_43_55
*1238 FILLER_43_57
*1239 FILLER_43_69
*1240 FILLER_43_81
*1241 FILLER_43_93
*1242 FILLER_44_109
*1243 FILLER_44_121
*1244 FILLER_44_133
*1245 FILLER_44_139
*1246 FILLER_44_141
*1247 FILLER_44_15
*1248 FILLER_44_153
*1249 FILLER_44_165
*1250 FILLER_44_177
*1251 FILLER_44_189
*1252 FILLER_44_195
*1253 FILLER_44_197
*1254 FILLER_44_209
*1255 FILLER_44_221
*1256 FILLER_44_233
*1257 FILLER_44_245
*1258 FILLER_44_251
*1259 FILLER_44_253
*1260 FILLER_44_265
*1261 FILLER_44_27
*1262 FILLER_44_277
*1263 FILLER_44_289
*1264 FILLER_44_29
*1265 FILLER_44_297
*1266 FILLER_44_3
*1267 FILLER_44_41
*1268 FILLER_44_53
*1269 FILLER_44_65
*1270 FILLER_44_77
*1271 FILLER_44_83
*1272 FILLER_44_85
*1273 FILLER_44_97
*1274 FILLER_45_105
*1275 FILLER_45_111
*1276 FILLER_45_113
*1277 FILLER_45_125
*1278 FILLER_45_137
*1279 FILLER_45_149
*1280 FILLER_45_15
*1281 FILLER_45_161
*1282 FILLER_45_167
*1283 FILLER_45_169
*1284 FILLER_45_181
*1285 FILLER_45_193
*1286 FILLER_45_205
*1287 FILLER_45_217
*1288 FILLER_45_223
*1289 FILLER_45_225
*1290 FILLER_45_237
*1291 FILLER_45_249
*1292 FILLER_45_261
*1293 FILLER_45_27
*1294 FILLER_45_273
*1295 FILLER_45_279
*1296 FILLER_45_281
*1297 FILLER_45_293
*1298 FILLER_45_3
*1299 FILLER_45_39
*1300 FILLER_45_51
*1301 FILLER_45_55
*1302 FILLER_45_57
*1303 FILLER_45_69
*1304 FILLER_45_81
*1305 FILLER_45_93
*1306 FILLER_46_109
*1307 FILLER_46_121
*1308 FILLER_46_133
*1309 FILLER_46_139
*1310 FILLER_46_141
*1311 FILLER_46_15
*1312 FILLER_46_153
*1313 FILLER_46_165
*1314 FILLER_46_177
*1315 FILLER_46_189
*1316 FILLER_46_195
*1317 FILLER_46_197
*1318 FILLER_46_209
*1319 FILLER_46_221
*1320 FILLER_46_233
*1321 FILLER_46_245
*1322 FILLER_46_251
*1323 FILLER_46_253
*1324 FILLER_46_265
*1325 FILLER_46_27
*1326 FILLER_46_277
*1327 FILLER_46_289
*1328 FILLER_46_29
*1329 FILLER_46_297
*1330 FILLER_46_3
*1331 FILLER_46_41
*1332 FILLER_46_53
*1333 FILLER_46_65
*1334 FILLER_46_77
*1335 FILLER_46_83
*1336 FILLER_46_85
*1337 FILLER_46_97
*1338 FILLER_47_105
*1339 FILLER_47_111
*1340 FILLER_47_113
*1341 FILLER_47_125
*1342 FILLER_47_137
*1343 FILLER_47_149
*1344 FILLER_47_15
*1345 FILLER_47_161
*1346 FILLER_47_167
*1347 FILLER_47_169
*1348 FILLER_47_181
*1349 FILLER_47_193
*1350 FILLER_47_205
*1351 FILLER_47_217
*1352 FILLER_47_223
*1353 FILLER_47_225
*1354 FILLER_47_237
*1355 FILLER_47_249
*1356 FILLER_47_261
*1357 FILLER_47_27
*1358 FILLER_47_273
*1359 FILLER_47_279
*1360 FILLER_47_281
*1361 FILLER_47_293
*1362 FILLER_47_3
*1363 FILLER_47_39
*1364 FILLER_47_51
*1365 FILLER_47_55
*1366 FILLER_47_57
*1367 FILLER_47_69
*1368 FILLER_47_81
*1369 FILLER_47_93
*1370 FILLER_48_109
*1371 FILLER_48_121
*1372 FILLER_48_133
*1373 FILLER_48_139
*1374 FILLER_48_141
*1375 FILLER_48_15
*1376 FILLER_48_153
*1377 FILLER_48_165
*1378 FILLER_48_177
*1379 FILLER_48_189
*1380 FILLER_48_195
*1381 FILLER_48_197
*1382 FILLER_48_209
*1383 FILLER_48_221
*1384 FILLER_48_233
*1385 FILLER_48_245
*1386 FILLER_48_251
*1387 FILLER_48_253
*1388 FILLER_48_265
*1389 FILLER_48_27
*1390 FILLER_48_277
*1391 FILLER_48_289
*1392 FILLER_48_29
*1393 FILLER_48_297
*1394 FILLER_48_3
*1395 FILLER_48_41
*1396 FILLER_48_53
*1397 FILLER_48_65
*1398 FILLER_48_77
*1399 FILLER_48_83
*1400 FILLER_48_85
*1401 FILLER_48_97
*1402 FILLER_49_105
*1403 FILLER_49_111
*1404 FILLER_49_113
*1405 FILLER_49_125
*1406 FILLER_49_137
*1407 FILLER_49_149
*1408 FILLER_49_15
*1409 FILLER_49_161
*1410 FILLER_49_167
*1411 FILLER_49_169
*1412 FILLER_49_181
*1413 FILLER_49_193
*1414 FILLER_49_205
*1415 FILLER_49_217
*1416 FILLER_49_223
*1417 FILLER_49_225
*1418 FILLER_49_237
*1419 FILLER_49_249
*1420 FILLER_49_261
*1421 FILLER_49_27
*1422 FILLER_49_273
*1423 FILLER_49_279
*1424 FILLER_49_281
*1425 FILLER_49_293
*1426 FILLER_49_3
*1427 FILLER_49_39
*1428 FILLER_49_51
*1429 FILLER_49_55
*1430 FILLER_49_57
*1431 FILLER_49_69
*1432 FILLER_49_81
*1433 FILLER_49_93
*1434 FILLER_4_109
*1435 FILLER_4_121
*1436 FILLER_4_133
*1437 FILLER_4_139
*1438 FILLER_4_141
*1439 FILLER_4_153
*1440 FILLER_4_165
*1441 FILLER_4_177
*1442 FILLER_4_189
*1443 FILLER_4_19
*1444 FILLER_4_195
*1445 FILLER_4_197
*1446 FILLER_4_209
*1447 FILLER_4_221
*1448 FILLER_4_233
*1449 FILLER_4_245
*1450 FILLER_4_251
*1451 FILLER_4_253
*1452 FILLER_4_265
*1453 FILLER_4_27
*1454 FILLER_4_277
*1455 FILLER_4_289
*1456 FILLER_4_29
*1457 FILLER_4_297
*1458 FILLER_4_41
*1459 FILLER_4_53
*1460 FILLER_4_65
*1461 FILLER_4_7
*1462 FILLER_4_77
*1463 FILLER_4_83
*1464 FILLER_4_85
*1465 FILLER_4_97
*1466 FILLER_50_109
*1467 FILLER_50_121
*1468 FILLER_50_133
*1469 FILLER_50_139
*1470 FILLER_50_141
*1471 FILLER_50_153
*1472 FILLER_50_16
*1473 FILLER_50_165
*1474 FILLER_50_177
*1475 FILLER_50_189
*1476 FILLER_50_195
*1477 FILLER_50_197
*1478 FILLER_50_209
*1479 FILLER_50_221
*1480 FILLER_50_233
*1481 FILLER_50_245
*1482 FILLER_50_251
*1483 FILLER_50_253
*1484 FILLER_50_265
*1485 FILLER_50_277
*1486 FILLER_50_289
*1487 FILLER_50_29
*1488 FILLER_50_297
*1489 FILLER_50_41
*1490 FILLER_50_53
*1491 FILLER_50_65
*1492 FILLER_50_77
*1493 FILLER_50_83
*1494 FILLER_50_85
*1495 FILLER_50_97
*1496 FILLER_51_105
*1497 FILLER_51_111
*1498 FILLER_51_113
*1499 FILLER_51_125
*1500 FILLER_51_137
*1501 FILLER_51_149
*1502 FILLER_51_15
*1503 FILLER_51_161
*1504 FILLER_51_167
*1505 FILLER_51_169
*1506 FILLER_51_181
*1507 FILLER_51_193
*1508 FILLER_51_205
*1509 FILLER_51_217
*1510 FILLER_51_223
*1511 FILLER_51_225
*1512 FILLER_51_237
*1513 FILLER_51_249
*1514 FILLER_51_261
*1515 FILLER_51_27
*1516 FILLER_51_273
*1517 FILLER_51_279
*1518 FILLER_51_281
*1519 FILLER_51_293
*1520 FILLER_51_3
*1521 FILLER_51_39
*1522 FILLER_51_51
*1523 FILLER_51_55
*1524 FILLER_51_57
*1525 FILLER_51_69
*1526 FILLER_51_81
*1527 FILLER_51_93
*1528 FILLER_52_109
*1529 FILLER_52_121
*1530 FILLER_52_133
*1531 FILLER_52_139
*1532 FILLER_52_141
*1533 FILLER_52_15
*1534 FILLER_52_153
*1535 FILLER_52_165
*1536 FILLER_52_177
*1537 FILLER_52_189
*1538 FILLER_52_195
*1539 FILLER_52_197
*1540 FILLER_52_209
*1541 FILLER_52_221
*1542 FILLER_52_233
*1543 FILLER_52_245
*1544 FILLER_52_251
*1545 FILLER_52_253
*1546 FILLER_52_265
*1547 FILLER_52_27
*1548 FILLER_52_277
*1549 FILLER_52_289
*1550 FILLER_52_29
*1551 FILLER_52_297
*1552 FILLER_52_3
*1553 FILLER_52_41
*1554 FILLER_52_53
*1555 FILLER_52_65
*1556 FILLER_52_77
*1557 FILLER_52_83
*1558 FILLER_52_85
*1559 FILLER_52_97
*1560 FILLER_53_105
*1561 FILLER_53_111
*1562 FILLER_53_113
*1563 FILLER_53_125
*1564 FILLER_53_137
*1565 FILLER_53_149
*1566 FILLER_53_15
*1567 FILLER_53_161
*1568 FILLER_53_167
*1569 FILLER_53_169
*1570 FILLER_53_181
*1571 FILLER_53_193
*1572 FILLER_53_205
*1573 FILLER_53_217
*1574 FILLER_53_223
*1575 FILLER_53_225
*1576 FILLER_53_237
*1577 FILLER_53_249
*1578 FILLER_53_261
*1579 FILLER_53_27
*1580 FILLER_53_273
*1581 FILLER_53_279
*1582 FILLER_53_281
*1583 FILLER_53_293
*1584 FILLER_53_3