*SPEF "ieee 1481-1999"
*DESIGN "zymason_tinytop"
*DATE "11:11:11 Fri 11 11, 1111"
*VENDOR "OpenRCX"
*PROGRAM "Parallel Extraction"
*VERSION "1.0"
*DESIGN_FLOW "NAME_SCOPE LOCAL" "PIN_CAP NONE"
*DIVIDER /
*DELIMITER :
*BUS_DELIMITER []
*T_UNIT 1 NS
*C_UNIT 1 PF
*R_UNIT 1 OHM
*L_UNIT 1 HENRY

*NAME_MAP
*1 io_in[0]
*2 io_in[1]
*3 io_in[2]
*4 io_in[3]
*5 io_in[4]
*6 io_in[5]
*7 io_in[6]
*8 io_in[7]
*9 io_out[0]
*10 io_out[1]
*11 io_out[2]
*12 io_out[3]
*13 io_out[4]
*14 io_out[5]
*15 io_out[6]
*16 io_out[7]
*19 _0000_
*20 _0001_
*21 _0002_
*22 _0003_
*23 _0004_
*24 _0005_
*25 _0006_
*26 _0007_
*27 _0008_
*28 _0009_
*29 _0010_
*30 _0011_
*31 _0012_
*32 _0013_
*33 _0014_
*34 _0015_
*35 _0016_
*36 _0017_
*37 _0018_
*38 _0019_
*39 _0020_
*40 _0021_
*41 _0022_
*42 _0023_
*43 _0024_
*44 _0025_
*45 _0026_
*46 _0027_
*47 _0028_
*48 _0029_
*49 _0030_
*50 _0031_
*51 _0032_
*52 _0033_
*53 _0034_
*54 _0035_
*55 _0036_
*56 _0037_
*57 _0038_
*58 _0039_
*59 _0040_
*60 _0041_
*61 _0042_
*62 _0043_
*63 _0044_
*64 _0045_
*65 _0046_
*66 _0047_
*67 _0048_
*68 _0049_
*69 _0050_
*70 _0051_
*71 _0052_
*72 _0053_
*73 _0054_
*74 _0055_
*75 _0056_
*76 _0057_
*77 _0058_
*78 _0059_
*79 _0060_
*80 _0061_
*81 _0062_
*82 _0063_
*83 _0064_
*84 _0065_
*85 _0066_
*86 _0067_
*87 _0068_
*88 _0069_
*89 _0070_
*90 _0071_
*91 _0072_
*92 _0073_
*93 _0074_
*94 _0075_
*95 _0076_
*96 _0077_
*97 _0078_
*98 _0079_
*99 _0080_
*100 _0081_
*101 _0082_
*102 _0083_
*103 _0084_
*104 _0085_
*105 _0086_
*106 _0087_
*107 _0088_
*108 _0089_
*109 _0090_
*110 _0091_
*111 _0092_
*112 _0093_
*113 _0094_
*114 _0095_
*115 _0096_
*116 _0097_
*117 _0098_
*118 _0099_
*119 _0100_
*120 _0101_
*121 _0102_
*122 _0103_
*123 _0104_
*124 _0105_
*125 _0106_
*126 _0107_
*127 _0108_
*128 _0109_
*129 _0110_
*130 _0111_
*131 _0112_
*132 _0113_
*133 _0114_
*134 _0115_
*135 _0116_
*136 _0117_
*137 _0118_
*138 _0119_
*139 _0120_
*140 _0121_
*141 _0122_
*142 _0123_
*143 _0124_
*144 _0125_
*145 _0126_
*146 _0127_
*147 _0128_
*148 _0129_
*149 _0130_
*150 _0131_
*151 _0132_
*152 _0133_
*153 _0134_
*154 _0135_
*155 _0136_
*156 _0137_
*157 _0138_
*158 _0139_
*159 _0140_
*160 _0141_
*161 _0142_
*162 _0143_
*163 _0144_
*164 _0145_
*165 _0146_
*166 _0147_
*167 _0148_
*168 _0149_
*169 _0150_
*170 _0151_
*171 _0152_
*172 _0153_
*173 _0154_
*174 _0155_
*175 _0156_
*176 _0157_
*177 _0158_
*178 _0159_
*179 _0160_
*180 _0161_
*181 _0162_
*182 _0163_
*183 _0164_
*184 _0165_
*185 _0166_
*186 _0167_
*187 _0168_
*188 _0169_
*189 _0170_
*190 _0171_
*191 _0172_
*192 _0173_
*193 _0174_
*194 _0175_
*195 _0176_
*196 _0177_
*197 _0178_
*198 _0179_
*199 _0180_
*200 _0181_
*201 _0182_
*202 _0183_
*203 _0184_
*204 _0185_
*205 _0186_
*206 _0187_
*207 _0188_
*208 _0189_
*209 _0190_
*210 _0191_
*211 _0192_
*212 _0193_
*213 _0194_
*214 _0195_
*215 _0196_
*216 _0197_
*217 _0198_
*218 _0199_
*219 _0200_
*220 _0201_
*221 _0202_
*222 _0203_
*223 _0204_
*224 _0205_
*225 _0206_
*226 _0207_
*227 _0208_
*228 _0209_
*229 _0210_
*230 _0211_
*231 _0212_
*232 _0213_
*233 _0214_
*234 _0215_
*235 _0216_
*236 _0217_
*237 _0218_
*238 _0219_
*239 _0220_
*240 _0221_
*241 _0222_
*242 _0223_
*243 _0224_
*244 _0225_
*245 _0226_
*246 _0227_
*247 _0228_
*248 _0229_
*249 _0230_
*250 _0231_
*251 _0232_
*252 _0233_
*253 _0234_
*254 _0235_
*255 _0236_
*256 _0237_
*257 _0238_
*258 _0239_
*259 _0240_
*260 _0241_
*261 _0242_
*262 _0243_
*263 _0244_
*264 _0245_
*265 _0246_
*266 _0247_
*267 _0248_
*268 _0249_
*269 _0250_
*270 _0251_
*271 _0252_
*272 _0253_
*273 _0254_
*274 _0255_
*275 _0256_
*276 _0257_
*277 _0258_
*278 _0259_
*279 _0260_
*280 _0261_
*281 _0262_
*282 _0263_
*283 _0264_
*284 _0265_
*285 _0266_
*286 _0267_
*287 _0268_
*288 _0269_
*289 _0270_
*290 _0271_
*291 _0272_
*292 _0273_
*293 _0274_
*294 _0275_
*295 _0276_
*296 _0277_
*297 _0278_
*298 _0279_
*299 _0280_
*300 _0281_
*301 _0282_
*302 _0283_
*303 _0284_
*304 _0285_
*305 _0286_
*306 _0287_
*307 _0288_
*308 _0289_
*309 _0290_
*310 _0291_
*311 _0292_
*312 _0293_
*313 _0294_
*314 _0295_
*315 _0296_
*316 _0297_
*317 _0298_
*318 _0299_
*319 _0300_
*320 _0301_
*321 _0302_
*322 _0303_
*323 _0304_
*324 _0305_
*325 _0306_
*326 _0307_
*327 _0308_
*328 _0309_
*329 _0310_
*330 _0311_
*331 _0312_
*332 _0313_
*333 _0314_
*334 _0315_
*335 _0316_
*336 _0317_
*337 _0318_
*338 _0319_
*339 _0320_
*340 _0321_
*341 _0322_
*342 _0323_
*343 _0324_
*344 _0325_
*345 _0326_
*346 _0327_
*347 _0328_
*348 _0329_
*349 _0330_
*350 _0331_
*351 _0332_
*352 _0333_
*353 _0334_
*354 _0335_
*355 _0336_
*356 _0337_
*357 _0338_
*358 _0339_
*359 _0340_
*360 _0341_
*361 _0342_
*362 _0343_
*363 _0344_
*364 _0345_
*365 _0346_
*366 _0347_
*367 _0348_
*368 _0349_
*369 _0350_
*370 _0351_
*371 _0352_
*372 _0353_
*373 _0354_
*374 _0355_
*375 _0356_
*376 _0357_
*377 _0358_
*378 _0359_
*379 _0360_
*380 _0361_
*381 _0362_
*382 _0363_
*383 _0364_
*384 _0365_
*385 _0366_
*386 _0367_
*387 _0368_
*388 _0369_
*389 _0370_
*390 _0371_
*391 _0372_
*392 _0373_
*393 _0374_
*394 _0375_
*395 _0376_
*396 _0377_
*397 _0378_
*398 _0379_
*399 _0380_
*400 _0381_
*401 _0382_
*402 _0383_
*403 _0384_
*404 _0385_
*405 _0386_
*406 _0387_
*407 _0388_
*408 _0389_
*409 _0390_
*410 _0391_
*411 _0392_
*412 _0393_
*413 _0394_
*414 _0395_
*415 _0396_
*416 _0397_
*417 _0398_
*418 _0399_
*419 _0400_
*420 _0401_
*421 _0402_
*422 _0403_
*423 _0404_
*424 _0405_
*425 _0406_
*426 _0407_
*427 _0408_
*428 _0409_
*429 _0410_
*430 _0411_
*431 _0412_
*432 _0413_
*433 _0414_
*434 _0415_
*435 _0416_
*436 _0417_
*437 _0418_
*438 _0419_
*439 _0420_
*440 _0421_
*441 _0422_
*442 _0423_
*443 _0424_
*444 _0425_
*445 _0426_
*446 _0427_
*447 _0428_
*448 _0429_
*449 _0430_
*450 _0431_
*451 _0432_
*452 _0433_
*453 _0434_
*454 _0435_
*455 _0436_
*456 _0437_
*457 _0438_
*458 _0439_
*459 _0440_
*460 _0441_
*461 _0442_
*462 _0443_
*463 _0444_
*464 _0445_
*465 _0446_
*466 _0447_
*467 _0448_
*468 _0449_
*469 _0450_
*470 _0451_
*471 _0452_
*472 _0453_
*473 _0454_
*474 _0455_
*475 _0456_
*476 _0457_
*477 _0458_
*478 _0459_
*479 _0460_
*480 _0461_
*481 _0462_
*482 _0463_
*483 _0464_
*484 _0465_
*485 _0466_
*486 _0467_
*487 _0468_
*488 _0469_
*489 _0470_
*490 _0471_
*491 _0472_
*492 _0473_
*493 _0474_
*494 _0475_
*495 _0476_
*496 _0477_
*497 _0478_
*498 _0479_
*499 _0480_
*500 _0481_
*501 _0482_
*502 _0483_
*503 _0484_
*504 _0485_
*505 _0486_
*506 _0487_
*507 _0488_
*508 _0489_
*509 _0490_
*510 _0491_
*511 _0492_
*512 _0493_
*513 _0494_
*514 _0495_
*515 _0496_
*516 _0497_
*517 _0498_
*518 _0499_
*519 _0500_
*520 _0501_
*521 _0502_
*522 _0503_
*523 _0504_
*524 _0505_
*525 _0506_
*526 _0507_
*527 _0508_
*528 _0509_
*529 _0510_
*530 _0511_
*531 _0512_
*532 _0513_
*533 _0514_
*534 _0515_
*535 _0516_
*536 _0517_
*537 _0518_
*538 _0519_
*539 _0520_
*540 _0521_
*541 _0522_
*542 _0523_
*543 _0524_
*544 _0525_
*545 _0526_
*546 _0527_
*547 _0528_
*548 _0529_
*549 _0530_
*550 _0531_
*551 _0532_
*552 _0533_
*553 _0534_
*554 _0535_
*555 _0536_
*556 _0537_
*557 clknet_0_io_in[0]
*558 clknet_3_0__leaf_io_in[0]
*559 clknet_3_1__leaf_io_in[0]
*560 clknet_3_2__leaf_io_in[0]
*561 clknet_3_3__leaf_io_in[0]
*562 clknet_3_4__leaf_io_in[0]
*563 clknet_3_5__leaf_io_in[0]
*564 clknet_3_6__leaf_io_in[0]
*565 clknet_3_7__leaf_io_in[0]
*566 net1
*567 net2
*568 net3
*569 net4
*570 net5
*571 net6
*572 net7
*573 p0\.STR\[0\]\.dr\.en
*574 p0\.STR\[0\]\.dr\.val\[0\]
*575 p0\.STR\[0\]\.dr\.val\[1\]
*576 p0\.STR\[0\]\.dr\.val\[2\]
*577 p0\.STR\[0\]\.dr\.val\[3\]
*578 p0\.STR\[0\]\.dr\.val\[4\]
*579 p0\.STR\[0\]\.dr\.val\[5\]
*580 p0\.STR\[0\]\.dr\.val\[6\]
*581 p0\.STR\[10\]\.dr\.en
*582 p0\.STR\[10\]\.dr\.val\[0\]
*583 p0\.STR\[10\]\.dr\.val\[1\]
*584 p0\.STR\[10\]\.dr\.val\[2\]
*585 p0\.STR\[10\]\.dr\.val\[3\]
*586 p0\.STR\[10\]\.dr\.val\[4\]
*587 p0\.STR\[10\]\.dr\.val\[5\]
*588 p0\.STR\[10\]\.dr\.val\[6\]
*589 p0\.STR\[11\]\.dr\.en
*590 p0\.STR\[11\]\.dr\.val\[0\]
*591 p0\.STR\[11\]\.dr\.val\[1\]
*592 p0\.STR\[11\]\.dr\.val\[2\]
*593 p0\.STR\[11\]\.dr\.val\[3\]
*594 p0\.STR\[11\]\.dr\.val\[4\]
*595 p0\.STR\[11\]\.dr\.val\[5\]
*596 p0\.STR\[11\]\.dr\.val\[6\]
*597 p0\.STR\[1\]\.dr\.en
*598 p0\.STR\[1\]\.dr\.val\[0\]
*599 p0\.STR\[1\]\.dr\.val\[1\]
*600 p0\.STR\[1\]\.dr\.val\[2\]
*601 p0\.STR\[1\]\.dr\.val\[3\]
*602 p0\.STR\[1\]\.dr\.val\[4\]
*603 p0\.STR\[1\]\.dr\.val\[5\]
*604 p0\.STR\[1\]\.dr\.val\[6\]
*605 p0\.STR\[2\]\.dr\.en
*606 p0\.STR\[2\]\.dr\.val\[0\]
*607 p0\.STR\[2\]\.dr\.val\[1\]
*608 p0\.STR\[2\]\.dr\.val\[2\]
*609 p0\.STR\[2\]\.dr\.val\[3\]
*610 p0\.STR\[2\]\.dr\.val\[4\]
*611 p0\.STR\[2\]\.dr\.val\[5\]
*612 p0\.STR\[2\]\.dr\.val\[6\]
*613 p0\.STR\[3\]\.dr\.en
*614 p0\.STR\[3\]\.dr\.val\[0\]
*615 p0\.STR\[3\]\.dr\.val\[1\]
*616 p0\.STR\[3\]\.dr\.val\[2\]
*617 p0\.STR\[3\]\.dr\.val\[3\]
*618 p0\.STR\[3\]\.dr\.val\[4\]
*619 p0\.STR\[3\]\.dr\.val\[5\]
*620 p0\.STR\[3\]\.dr\.val\[6\]
*621 p0\.STR\[4\]\.dr\.en
*622 p0\.STR\[4\]\.dr\.val\[0\]
*623 p0\.STR\[4\]\.dr\.val\[1\]
*624 p0\.STR\[4\]\.dr\.val\[2\]
*625 p0\.STR\[4\]\.dr\.val\[3\]
*626 p0\.STR\[4\]\.dr\.val\[4\]
*627 p0\.STR\[4\]\.dr\.val\[5\]
*628 p0\.STR\[4\]\.dr\.val\[6\]
*629 p0\.STR\[5\]\.dr\.en
*630 p0\.STR\[5\]\.dr\.val\[0\]
*631 p0\.STR\[5\]\.dr\.val\[1\]
*632 p0\.STR\[5\]\.dr\.val\[2\]
*633 p0\.STR\[5\]\.dr\.val\[3\]
*634 p0\.STR\[5\]\.dr\.val\[4\]
*635 p0\.STR\[5\]\.dr\.val\[5\]
*636 p0\.STR\[5\]\.dr\.val\[6\]
*637 p0\.STR\[6\]\.dr\.en
*638 p0\.STR\[6\]\.dr\.val\[0\]
*639 p0\.STR\[6\]\.dr\.val\[1\]
*640 p0\.STR\[6\]\.dr\.val\[2\]
*641 p0\.STR\[6\]\.dr\.val\[3\]
*642 p0\.STR\[6\]\.dr\.val\[4\]
*643 p0\.STR\[6\]\.dr\.val\[5\]
*644 p0\.STR\[6\]\.dr\.val\[6\]
*645 p0\.STR\[7\]\.dr\.en
*646 p0\.STR\[7\]\.dr\.val\[0\]
*647 p0\.STR\[7\]\.dr\.val\[1\]
*648 p0\.STR\[7\]\.dr\.val\[2\]
*649 p0\.STR\[7\]\.dr\.val\[3\]
*650 p0\.STR\[7\]\.dr\.val\[4\]
*651 p0\.STR\[7\]\.dr\.val\[5\]
*652 p0\.STR\[7\]\.dr\.val\[6\]
*653 p0\.STR\[8\]\.dr\.en
*654 p0\.STR\[8\]\.dr\.val\[0\]
*655 p0\.STR\[8\]\.dr\.val\[1\]
*656 p0\.STR\[8\]\.dr\.val\[2\]
*657 p0\.STR\[8\]\.dr\.val\[3\]
*658 p0\.STR\[8\]\.dr\.val\[4\]
*659 p0\.STR\[8\]\.dr\.val\[5\]
*660 p0\.STR\[8\]\.dr\.val\[6\]
*661 p0\.STR\[9\]\.dr\.en
*662 p0\.STR\[9\]\.dr\.val\[0\]
*663 p0\.STR\[9\]\.dr\.val\[1\]
*664 p0\.STR\[9\]\.dr\.val\[2\]
*665 p0\.STR\[9\]\.dr\.val\[3\]
*666 p0\.STR\[9\]\.dr\.val\[4\]
*667 p0\.STR\[9\]\.dr\.val\[5\]
*668 p0\.STR\[9\]\.dr\.val\[6\]
*669 p0\.f0\.nextState\[0\]
*670 p0\.f0\.nextState\[1\]
*671 p0\.f0\.state\[0\]
*672 p0\.f0\.state\[1\]
*673 p0\.p0\.count\[0\]
*674 p0\.p0\.count\[1\]
*675 p0\.p0\.count\[2\]
*676 p0\.p0\.count\[3\]
*677 p0\.p0\.count\[4\]
*678 p0\.p0\.count\[5\]
*679 p0\.p0\.count\[6\]
*680 p0\.p0\.count\[7\]
*681 p0\.p0\.count\[8\]
*682 p0\.p0\.lowCount\[0\]
*683 p0\.p0\.lowCount\[1\]
*684 p0\.p0\.lowCount\[2\]
*685 p0\.p0\.lowCount\[3\]
*686 p0\.p0\.lowCount\[4\]
*687 ANTENNA_0
*688 ANTENNA_1
*689 FILLER_0_10
*690 FILLER_0_102
*691 FILLER_0_110
*692 FILLER_0_116
*693 FILLER_0_123
*694 FILLER_0_130
*695 FILLER_0_136
*696 FILLER_0_14
*697 FILLER_0_141
*698 FILLER_0_146
*699 FILLER_0_151
*700 FILLER_0_158
*701 FILLER_0_162
*702 FILLER_0_169
*703 FILLER_0_18
*704 FILLER_0_181
*705 FILLER_0_193
*706 FILLER_0_197
*707 FILLER_0_209
*708 FILLER_0_221
*709 FILLER_0_225
*710 FILLER_0_237
*711 FILLER_0_249
*712 FILLER_0_253
*713 FILLER_0_26
*714 FILLER_0_265
*715 FILLER_0_277
*716 FILLER_0_281
*717 FILLER_0_293
*718 FILLER_0_3
*719 FILLER_0_32
*720 FILLER_0_40
*721 FILLER_0_45
*722 FILLER_0_52
*723 FILLER_0_60
*724 FILLER_0_67
*725 FILLER_0_74
*726 FILLER_0_82
*727 FILLER_0_91
*728 FILLER_10_11
*729 FILLER_10_122
*730 FILLER_10_129
*731 FILLER_10_136
*732 FILLER_10_141
*733 FILLER_10_151
*734 FILLER_10_158
*735 FILLER_10_184
*736 FILLER_10_191
*737 FILLER_10_195
*738 FILLER_10_197
*739 FILLER_10_209
*740 FILLER_10_221
*741 FILLER_10_233
*742 FILLER_10_24
*743 FILLER_10_245
*744 FILLER_10_251
*745 FILLER_10_253
*746 FILLER_10_265
*747 FILLER_10_277
*748 FILLER_10_289
*749 FILLER_10_29
*750 FILLER_10_297
*751 FILLER_10_3
*752 FILLER_10_52
*753 FILLER_10_77
*754 FILLER_10_83
*755 FILLER_10_85
*756 FILLER_10_97
*757 FILLER_11_103
*758 FILLER_11_111
*759 FILLER_11_117
*760 FILLER_11_121
*761 FILLER_11_13
*762 FILLER_11_143
*763 FILLER_11_156
*764 FILLER_11_163
*765 FILLER_11_167
*766 FILLER_11_172
*767 FILLER_11_179
*768 FILLER_11_183
*769 FILLER_11_205
*770 FILLER_11_217
*771 FILLER_11_223
*772 FILLER_11_225
*773 FILLER_11_237
*774 FILLER_11_24
*775 FILLER_11_249
*776 FILLER_11_261
*777 FILLER_11_273
*778 FILLER_11_279
*779 FILLER_11_281
*780 FILLER_11_293
*781 FILLER_11_52
*782 FILLER_11_57
*783 FILLER_11_65
*784 FILLER_11_78
*785 FILLER_12_100
*786 FILLER_12_121
*787 FILLER_12_134
*788 FILLER_12_141
*789 FILLER_12_145
*790 FILLER_12_149
*791 FILLER_12_174
*792 FILLER_12_187
*793 FILLER_12_195
*794 FILLER_12_200
*795 FILLER_12_212
*796 FILLER_12_224
*797 FILLER_12_23
*798 FILLER_12_236
*799 FILLER_12_248
*800 FILLER_12_253
*801 FILLER_12_265
*802 FILLER_12_27
*803 FILLER_12_277
*804 FILLER_12_289
*805 FILLER_12_297
*806 FILLER_12_32
*807 FILLER_12_56
*808 FILLER_12_80
*809 FILLER_12_94
*810 FILLER_13_105
*811 FILLER_13_111
*812 FILLER_13_122
*813 FILLER_13_128
*814 FILLER_13_149
*815 FILLER_13_153
*816 FILLER_13_157
*817 FILLER_13_164
*818 FILLER_13_169
*819 FILLER_13_191
*820 FILLER_13_20
*821 FILLER_13_203
*822 FILLER_13_215
*823 FILLER_13_223
*824 FILLER_13_225
*825 FILLER_13_237
*826 FILLER_13_249
*827 FILLER_13_261
*828 FILLER_13_273
*829 FILLER_13_279
*830 FILLER_13_281
*831 FILLER_13_293
*832 FILLER_13_3
*833 FILLER_13_45
*834 FILLER_13_52
*835 FILLER_13_57
*836 FILLER_13_7
*837 FILLER_13_81
*838 FILLER_14_106
*839 FILLER_14_114
*840 FILLER_14_136
*841 FILLER_14_144
*842 FILLER_14_16
*843 FILLER_14_173
*844 FILLER_14_180
*845 FILLER_14_187
*846 FILLER_14_195
*847 FILLER_14_20
*848 FILLER_14_200
*849 FILLER_14_212
*850 FILLER_14_224
*851 FILLER_14_236
*852 FILLER_14_24
*853 FILLER_14_248
*854 FILLER_14_253
*855 FILLER_14_265
*856 FILLER_14_277
*857 FILLER_14_289
*858 FILLER_14_297
*859 FILLER_14_3
*860 FILLER_14_39
*861 FILLER_14_47
*862 FILLER_14_72
*863 FILLER_14_80
*864 FILLER_14_9
*865 FILLER_15_108
*866 FILLER_15_113
*867 FILLER_15_117
*868 FILLER_15_122
*869 FILLER_15_130
*870 FILLER_15_137
*871 FILLER_15_14
*872 FILLER_15_141
*873 FILLER_15_151
*874 FILLER_15_162
*875 FILLER_15_169
*876 FILLER_15_181
*877 FILLER_15_187
*878 FILLER_15_209
*879 FILLER_15_21
*880 FILLER_15_221
*881 FILLER_15_225
*882 FILLER_15_237
*883 FILLER_15_249
*884 FILLER_15_261
*885 FILLER_15_273
*886 FILLER_15_279
*887 FILLER_15_281
*888 FILLER_15_293
*889 FILLER_15_3
*890 FILLER_15_46
*891 FILLER_15_54
*892 FILLER_15_57
*893 FILLER_15_61
*894 FILLER_15_7
*895 FILLER_15_74
*896 FILLER_15_80
*897 FILLER_15_84
*898 FILLER_16_104
*899 FILLER_16_128
*900 FILLER_16_136
*901 FILLER_16_141
*902 FILLER_16_150
*903 FILLER_16_174
*904 FILLER_16_180
*905 FILLER_16_184
*906 FILLER_16_191
*907 FILLER_16_195
*908 FILLER_16_197
*909 FILLER_16_209
*910 FILLER_16_221
*911 FILLER_16_23
*912 FILLER_16_233
*913 FILLER_16_245
*914 FILLER_16_251
*915 FILLER_16_253
*916 FILLER_16_265
*917 FILLER_16_27
*918 FILLER_16_277
*919 FILLER_16_289
*920 FILLER_16_29
*921 FILLER_16_297
*922 FILLER_16_38
*923 FILLER_16_45
*924 FILLER_16_70
*925 FILLER_16_76
*926 FILLER_16_80
*927 FILLER_16_85
*928 FILLER_16_91
*929 FILLER_17_108
*930 FILLER_17_11
*931 FILLER_17_113
*932 FILLER_17_125
*933 FILLER_17_149
*934 FILLER_17_164
*935 FILLER_17_169
*936 FILLER_17_193
*937 FILLER_17_205
*938 FILLER_17_217
*939 FILLER_17_223
*940 FILLER_17_225
*941 FILLER_17_237
*942 FILLER_17_24
*943 FILLER_17_249
*944 FILLER_17_261
*945 FILLER_17_273
*946 FILLER_17_279
*947 FILLER_17_281
*948 FILLER_17_293
*949 FILLER_17_3
*950 FILLER_17_52
*951 FILLER_17_66
*952 FILLER_17_7
*953 FILLER_17_74
*954 FILLER_17_96
*955 FILLER_18_10
*956 FILLER_18_117
*957 FILLER_18_131
*958 FILLER_18_139
*959 FILLER_18_141
*960 FILLER_18_145
*961 FILLER_18_170
*962 FILLER_18_187
*963 FILLER_18_195
*964 FILLER_18_200
*965 FILLER_18_212
*966 FILLER_18_224
*967 FILLER_18_23
*968 FILLER_18_236
*969 FILLER_18_248
*970 FILLER_18_253
*971 FILLER_18_265
*972 FILLER_18_27
*973 FILLER_18_277
*974 FILLER_18_289
*975 FILLER_18_297
*976 FILLER_18_3
*977 FILLER_18_50
*978 FILLER_18_78
*979 FILLER_18_85
*980 FILLER_18_92
*981 FILLER_19_100
*982 FILLER_19_104
*983 FILLER_19_108
*984 FILLER_19_113
*985 FILLER_19_117
*986 FILLER_19_121
*987 FILLER_19_145
*988 FILLER_19_158
*989 FILLER_19_166
*990 FILLER_19_172
*991 FILLER_19_178
*992 FILLER_19_199
*993 FILLER_19_206
*994 FILLER_19_218
*995 FILLER_19_225
*996 FILLER_19_23
*997 FILLER_19_237
*998 FILLER_19_249
*999 FILLER_19_261
*1000 FILLER_19_273
*1001 FILLER_19_279
*1002 FILLER_19_281
*1003 FILLER_19_293
*1004 FILLER_19_49
*1005 FILLER_19_55
*1006 FILLER_19_60
*1007 FILLER_19_73
*1008 FILLER_19_81
*1009 FILLER_19_85
*1010 FILLER_19_93
*1011 FILLER_1_108
*1012 FILLER_1_129
*1013 FILLER_1_136
*1014 FILLER_1_14
*1015 FILLER_1_143
*1016 FILLER_1_150
*1017 FILLER_1_157
*1018 FILLER_1_165
*1019 FILLER_1_169
*1020 FILLER_1_181
*1021 FILLER_1_193
*1022 FILLER_1_205
*1023 FILLER_1_21
*1024 FILLER_1_217
*1025 FILLER_1_223
*1026 FILLER_1_225
*1027 FILLER_1_237
*1028 FILLER_1_249
*1029 FILLER_1_261
*1030 FILLER_1_273
*1031 FILLER_1_279
*1032 FILLER_1_281
*1033 FILLER_1_293
*1034 FILLER_1_3
*1035 FILLER_1_32
*1036 FILLER_1_36
*1037 FILLER_1_40
*1038 FILLER_1_46
*1039 FILLER_1_50
*1040 FILLER_1_57
*1041 FILLER_1_61
*1042 FILLER_1_65
*1043 FILLER_1_7
*1044 FILLER_1_71
*1045 FILLER_1_88
*1046 FILLER_20_105
*1047 FILLER_20_113
*1048 FILLER_20_136
*1049 FILLER_20_141
*1050 FILLER_20_148
*1051 FILLER_20_172
*1052 FILLER_20_179
*1053 FILLER_20_186
*1054 FILLER_20_194
*1055 FILLER_20_218
*1056 FILLER_20_230
*1057 FILLER_20_24
*1058 FILLER_20_242
*1059 FILLER_20_250
*1060 FILLER_20_253
*1061 FILLER_20_265
*1062 FILLER_20_277
*1063 FILLER_20_289
*1064 FILLER_20_29
*1065 FILLER_20_297
*1066 FILLER_20_3
*1067 FILLER_20_36
*1068 FILLER_20_49
*1069 FILLER_20_74
*1070 FILLER_20_82
*1071 FILLER_21_104
*1072 FILLER_21_108
*1073 FILLER_21_134
*1074 FILLER_21_142
*1075 FILLER_21_164
*1076 FILLER_21_169
*1077 FILLER_21_192
*1078 FILLER_21_199
*1079 FILLER_21_206
*1080 FILLER_21_218
*1081 FILLER_21_22
*1082 FILLER_21_225
*1083 FILLER_21_237
*1084 FILLER_21_249
*1085 FILLER_21_261
*1086 FILLER_21_273
*1087 FILLER_21_279
*1088 FILLER_21_281
*1089 FILLER_21_293
*1090 FILLER_21_47
*1091 FILLER_21_55
*1092 FILLER_21_60
*1093 FILLER_21_7
*1094 FILLER_21_73
*1095 FILLER_21_98
*1096 FILLER_22_10
*1097 FILLER_22_106
*1098 FILLER_22_119
*1099 FILLER_22_136
*1100 FILLER_22_150
*1101 FILLER_22_158
*1102 FILLER_22_168
*1103 FILLER_22_17
*1104 FILLER_22_192
*1105 FILLER_22_200
*1106 FILLER_22_207
*1107 FILLER_22_219
*1108 FILLER_22_231
*1109 FILLER_22_24
*1110 FILLER_22_243
*1111 FILLER_22_251
*1112 FILLER_22_253
*1113 FILLER_22_265
*1114 FILLER_22_277
*1115 FILLER_22_289
*1116 FILLER_22_29
*1117 FILLER_22_297
*1118 FILLER_22_3
*1119 FILLER_22_55
*1120 FILLER_22_59
*1121 FILLER_22_80
*1122 FILLER_22_85
*1123 FILLER_22_93
*1124 FILLER_23_101
*1125 FILLER_23_108
*1126 FILLER_23_113
*1127 FILLER_23_13
*1128 FILLER_23_139
*1129 FILLER_23_164
*1130 FILLER_23_178
*1131 FILLER_23_191
*1132 FILLER_23_195
*1133 FILLER_23_217
*1134 FILLER_23_223
*1135 FILLER_23_225
*1136 FILLER_23_23
*1137 FILLER_23_237
*1138 FILLER_23_249
*1139 FILLER_23_261
*1140 FILLER_23_273
*1141 FILLER_23_279
*1142 FILLER_23_281
*1143 FILLER_23_293
*1144 FILLER_23_31
*1145 FILLER_23_52
*1146 FILLER_23_57
*1147 FILLER_23_7
*1148 FILLER_23_73
*1149 FILLER_24_100
*1150 FILLER_24_125
*1151 FILLER_24_136
*1152 FILLER_24_141
*1153 FILLER_24_148
*1154 FILLER_24_172
*1155 FILLER_24_185
*1156 FILLER_24_193
*1157 FILLER_24_200
*1158 FILLER_24_212
*1159 FILLER_24_224
*1160 FILLER_24_23
*1161 FILLER_24_236
*1162 FILLER_24_248
*1163 FILLER_24_253
*1164 FILLER_24_265
*1165 FILLER_24_27
*1166 FILLER_24_277
*1167 FILLER_24_289
*1168 FILLER_24_29
*1169 FILLER_24_297
*1170 FILLER_24_44
*1171 FILLER_24_50
*1172 FILLER_24_72
*1173 FILLER_24_80
*1174 FILLER_24_85
*1175 FILLER_25_101
*1176 FILLER_25_105
*1177 FILLER_25_111
*1178 FILLER_25_133
*1179 FILLER_25_142
*1180 FILLER_25_149
*1181 FILLER_25_155
*1182 FILLER_25_16
*1183 FILLER_25_160
*1184 FILLER_25_172
*1185 FILLER_25_178
*1186 FILLER_25_199
*1187 FILLER_25_211
*1188 FILLER_25_223
*1189 FILLER_25_225
*1190 FILLER_25_237
*1191 FILLER_25_249
*1192 FILLER_25_261
*1193 FILLER_25_273
*1194 FILLER_25_279
*1195 FILLER_25_281
*1196 FILLER_25_293
*1197 FILLER_25_3
*1198 FILLER_25_41
*1199 FILLER_25_47
*1200 FILLER_25_52
*1201 FILLER_25_60
*1202 FILLER_25_84
*1203 FILLER_25_9
*1204 FILLER_25_93
*1205 FILLER_26_10
*1206 FILLER_26_100
*1207 FILLER_26_104
*1208 FILLER_26_108
*1209 FILLER_26_121
*1210 FILLER_26_134
*1211 FILLER_26_162
*1212 FILLER_26_17
*1213 FILLER_26_187
*1214 FILLER_26_195
*1215 FILLER_26_218
*1216 FILLER_26_230
*1217 FILLER_26_24
*1218 FILLER_26_242
*1219 FILLER_26_250
*1220 FILLER_26_253
*1221 FILLER_26_265
*1222 FILLER_26_277
*1223 FILLER_26_289
*1224 FILLER_26_29
*1225 FILLER_26_297
*1226 FILLER_26_3
*1227 FILLER_26_50
*1228 FILLER_26_60
*1229 FILLER_26_74
*1230 FILLER_26_82
*1231 FILLER_26_85
*1232 FILLER_26_92
*1233 FILLER_27_108
*1234 FILLER_27_11
*1235 FILLER_27_113
*1236 FILLER_27_120
*1237 FILLER_27_144
*1238 FILLER_27_153
*1239 FILLER_27_164
*1240 FILLER_27_17
*1241 FILLER_27_174
*1242 FILLER_27_181
*1243 FILLER_27_188
*1244 FILLER_27_195
*1245 FILLER_27_202
*1246 FILLER_27_209
*1247 FILLER_27_221
*1248 FILLER_27_225
*1249 FILLER_27_237
*1250 FILLER_27_249
*1251 FILLER_27_261
*1252 FILLER_27_273
*1253 FILLER_27_279
*1254 FILLER_27_281
*1255 FILLER_27_293
*1256 FILLER_27_3
*1257 FILLER_27_39
*1258 FILLER_27_52
*1259 FILLER_27_57
*1260 FILLER_27_70
*1261 FILLER_27_84
*1262 FILLER_28_101
*1263 FILLER_28_109
*1264 FILLER_28_131
*1265 FILLER_28_139
*1266 FILLER_28_141
*1267 FILLER_28_165
*1268 FILLER_28_173
*1269 FILLER_28_186
*1270 FILLER_28_194
*1271 FILLER_28_218
*1272 FILLER_28_23
*1273 FILLER_28_230
*1274 FILLER_28_242
*1275 FILLER_28_250
*1276 FILLER_28_253
*1277 FILLER_28_265
*1278 FILLER_28_27
*1279 FILLER_28_277
*1280 FILLER_28_289
*1281 FILLER_28_29
*1282 FILLER_28_297
*1283 FILLER_28_42
*1284 FILLER_28_50
*1285 FILLER_28_72
*1286 FILLER_28_76
*1287 FILLER_28_80
*1288 FILLER_28_85
*1289 FILLER_29_108
*1290 FILLER_29_122
*1291 FILLER_29_128
*1292 FILLER_29_149
*1293 FILLER_29_157
*1294 FILLER_29_162
*1295 FILLER_29_174
*1296 FILLER_29_198
*1297 FILLER_29_205
*1298 FILLER_29_21
*1299 FILLER_29_217
*1300 FILLER_29_223
*1301 FILLER_29_225
*1302 FILLER_29_237
*1303 FILLER_29_249
*1304 FILLER_29_261
*1305 FILLER_29_273
*1306 FILLER_29_279
*1307 FILLER_29_281
*1308 FILLER_29_29
*1309 FILLER_29_293
*1310 FILLER_29_3
*1311 FILLER_29_35
*1312 FILLER_29_41
*1313 FILLER_29_48
*1314 FILLER_29_78
*1315 FILLER_29_8
*1316 FILLER_29_86
*1317 FILLER_2_103
*1318 FILLER_2_107
*1319 FILLER_2_112
*1320 FILLER_2_122
*1321 FILLER_2_129
*1322 FILLER_2_136
*1323 FILLER_2_144
*1324 FILLER_2_151
*1325 FILLER_2_158
*1326 FILLER_2_170
*1327 FILLER_2_182
*1328 FILLER_2_194
*1329 FILLER_2_197
*1330 FILLER_2_209
*1331 FILLER_2_21
*1332 FILLER_2_221
*1333 FILLER_2_233
*1334 FILLER_2_245
*1335 FILLER_2_251
*1336 FILLER_2_253
*1337 FILLER_2_265
*1338 FILLER_2_27
*1339 FILLER_2_277
*1340 FILLER_2_289
*1341 FILLER_2_297
*1342 FILLER_2_3
*1343 FILLER_2_32
*1344 FILLER_2_40
*1345 FILLER_2_45
*1346 FILLER_2_52
*1347 FILLER_2_61
*1348 FILLER_2_71
*1349 FILLER_2_80
*1350 FILLER_2_88
*1351 FILLER_2_96
*1352 FILLER_30_114
*1353 FILLER_30_121
*1354 FILLER_30_134
*1355 FILLER_30_144
*1356 FILLER_30_16
*1357 FILLER_30_169
*1358 FILLER_30_177
*1359 FILLER_30_182
*1360 FILLER_30_186
*1361 FILLER_30_190
*1362 FILLER_30_200
*1363 FILLER_30_212
*1364 FILLER_30_224
*1365 FILLER_30_236
*1366 FILLER_30_24
*1367 FILLER_30_248
*1368 FILLER_30_253
*1369 FILLER_30_265
*1370 FILLER_30_277
*1371 FILLER_30_289
*1372 FILLER_30_29
*1373 FILLER_30_297
*1374 FILLER_30_3
*1375 FILLER_30_35
*1376 FILLER_30_48
*1377 FILLER_30_55
*1378 FILLER_30_59
*1379 FILLER_30_8
*1380 FILLER_30_80
*1381 FILLER_30_89
*1382 FILLER_30_93
*1383 FILLER_31_106
*1384 FILLER_31_134
*1385 FILLER_31_142
*1386 FILLER_31_146
*1387 FILLER_31_151
*1388 FILLER_31_159
*1389 FILLER_31_164
*1390 FILLER_31_178
*1391 FILLER_31_191
*1392 FILLER_31_195
*1393 FILLER_31_217
*1394 FILLER_31_223
*1395 FILLER_31_225
*1396 FILLER_31_23
*1397 FILLER_31_237
*1398 FILLER_31_249
*1399 FILLER_31_261
*1400 FILLER_31_273
*1401 FILLER_31_279
*1402 FILLER_31_281
*1403 FILLER_31_293
*1404 FILLER_31_31
*1405 FILLER_31_52
*1406 FILLER_31_78
*1407 FILLER_31_84
*1408 FILLER_32_103
*1409 FILLER_32_107
*1410 FILLER_32_11
*1411 FILLER_32_111
*1412 FILLER_32_117
*1413 FILLER_32_121
*1414 FILLER_32_134
*1415 FILLER_32_141
*1416 FILLER_32_146
*1417 FILLER_32_174
*1418 FILLER_32_186
*1419 FILLER_32_190
*1420 FILLER_32_197
*1421 FILLER_32_209
*1422 FILLER_32_221
*1423 FILLER_32_233
*1424 FILLER_32_24
*1425 FILLER_32_245
*1426 FILLER_32_251
*1427 FILLER_32_253
*1428 FILLER_32_265
*1429 FILLER_32_277
*1430 FILLER_32_289
*1431 FILLER_32_297
*1432 FILLER_32_3
*1433 FILLER_32_50
*1434 FILLER_32_56
*1435 FILLER_32_60
*1436 FILLER_32_67
*1437 FILLER_32_7
*1438 FILLER_32_80
*1439 FILLER_32_85
*1440 FILLER_32_90
*1441 FILLER_33_10
*1442 FILLER_33_104
*1443 FILLER_33_113
*1444 FILLER_33_139
*1445 FILLER_33_164
*1446 FILLER_33_169
*1447 FILLER_33_17
*1448 FILLER_33_197
*1449 FILLER_33_204
*1450 FILLER_33_216
*1451 FILLER_33_225
*1452 FILLER_33_237
*1453 FILLER_33_24
*1454 FILLER_33_249
*1455 FILLER_33_261
*1456 FILLER_33_273
*1457 FILLER_33_279
*1458 FILLER_33_281
*1459 FILLER_33_293
*1460 FILLER_33_3
*1461 FILLER_33_31
*1462 FILLER_33_38
*1463 FILLER_33_45
*1464 FILLER_33_52
*1465 FILLER_33_61
*1466 FILLER_33_69
*1467 FILLER_33_91
*1468 FILLER_33_99
*1469 FILLER_34_112
*1470 FILLER_34_136
*1471 FILLER_34_141
*1472 FILLER_34_147
*1473 FILLER_34_155
*1474 FILLER_34_163
*1475 FILLER_34_188
*1476 FILLER_34_218
*1477 FILLER_34_23
*1478 FILLER_34_230
*1479 FILLER_34_242
*1480 FILLER_34_250
*1481 FILLER_34_253
*1482 FILLER_34_265
*1483 FILLER_34_27
*1484 FILLER_34_277
*1485 FILLER_34_289
*1486 FILLER_34_297
*1487 FILLER_34_49
*1488 FILLER_34_56
*1489 FILLER_34_69
*1490 FILLER_34_80
*1491 FILLER_34_85
*1492 FILLER_35_108
*1493 FILLER_35_113
*1494 FILLER_35_140
*1495 FILLER_35_147
*1496 FILLER_35_15
*1497 FILLER_35_153
*1498 FILLER_35_158
*1499 FILLER_35_166
*1500 FILLER_35_172
*1501 FILLER_35_196
*1502 FILLER_35_204
*1503 FILLER_35_216
*1504 FILLER_35_225
*1505 FILLER_35_237
*1506 FILLER_35_249
*1507 FILLER_35_261
*1508 FILLER_35_273
*1509 FILLER_35_279
*1510 FILLER_35_281
*1511 FILLER_35_293
*1512 FILLER_35_3
*1513 FILLER_35_40
*1514 FILLER_35_52
*1515 FILLER_35_57
*1516 FILLER_35_61
*1517 FILLER_35_71
*1518 FILLER_35_79
*1519 FILLER_35_89
*1520 FILLER_35_97
*1521 FILLER_36_102
*1522 FILLER_36_109
*1523 FILLER_36_122
*1524 FILLER_36_126
*1525 FILLER_36_132
*1526 FILLER_36_144
*1527 FILLER_36_168
*1528 FILLER_36_17
*1529 FILLER_36_185
*1530 FILLER_36_192
*1531 FILLER_36_197
*1532 FILLER_36_209
*1533 FILLER_36_221
*1534 FILLER_36_233
*1535 FILLER_36_24
*1536 FILLER_36_245
*1537 FILLER_36_251
*1538 FILLER_36_253
*1539 FILLER_36_265
*1540 FILLER_36_277
*1541 FILLER_36_289
*1542 FILLER_36_29
*1543 FILLER_36_297
*1544 FILLER_36_3
*1545 FILLER_36_40
*1546 FILLER_36_44
*1547 FILLER_36_65
*1548 FILLER_36_73
*1549 FILLER_36_8
*1550 FILLER_36_80
*1551 FILLER_36_89
*1552 FILLER_37_10
*1553 FILLER_37_104
*1554 FILLER_37_113
*1555 FILLER_37_123
*1556 FILLER_37_149
*1557 FILLER_37_162
*1558 FILLER_37_174
*1559 FILLER_37_178
*1560 FILLER_37_199
*1561 FILLER_37_206
*1562 FILLER_37_218
*1563 FILLER_37_225
*1564 FILLER_37_23
*1565 FILLER_37_237
*1566 FILLER_37_249
*1567 FILLER_37_261
*1568 FILLER_37_273
*1569 FILLER_37_279
*1570 FILLER_37_281
*1571 FILLER_37_293
*1572 FILLER_37_3
*1573 FILLER_37_30
*1574 FILLER_37_42
*1575 FILLER_37_52
*1576 FILLER_37_66
*1577 FILLER_37_80
*1578 FILLER_38_100
*1579 FILLER_38_123
*1580 FILLER_38_131
*1581 FILLER_38_139
*1582 FILLER_38_141
*1583 FILLER_38_149
*1584 FILLER_38_160
*1585 FILLER_38_164
*1586 FILLER_38_170
*1587 FILLER_38_187
*1588 FILLER_38_195
*1589 FILLER_38_218
*1590 FILLER_38_230
*1591 FILLER_38_24
*1592 FILLER_38_242
*1593 FILLER_38_250
*1594 FILLER_38_253
*1595 FILLER_38_265
*1596 FILLER_38_277
*1597 FILLER_38_289
*1598 FILLER_38_297
*1599 FILLER_38_3
*1600 FILLER_38_49
*1601 FILLER_38_56
*1602 FILLER_38_80
*1603 FILLER_38_85
*1604 FILLER_38_92
*1605 FILLER_39_108
*1606 FILLER_39_113
*1607 FILLER_39_124
*1608 FILLER_39_14
*1609 FILLER_39_148
*1610 FILLER_39_155
*1611 FILLER_39_159
*1612 FILLER_39_164
*1613 FILLER_39_174
*1614 FILLER_39_182
*1615 FILLER_39_189
*1616 FILLER_39_195
*1617 FILLER_39_199
*1618 FILLER_39_211
*1619 FILLER_39_22
*1620 FILLER_39_223
*1621 FILLER_39_225
*1622 FILLER_39_237
*1623 FILLER_39_249
*1624 FILLER_39_261
*1625 FILLER_39_273
*1626 FILLER_39_279
*1627 FILLER_39_281
*1628 FILLER_39_293
*1629 FILLER_39_31
*1630 FILLER_39_40
*1631 FILLER_39_50
*1632 FILLER_39_6
*1633 FILLER_39_67
*1634 FILLER_39_73
*1635 FILLER_39_81
*1636 FILLER_39_88
*1637 FILLER_39_96
*1638 FILLER_3_105
*1639 FILLER_3_111
*1640 FILLER_3_113
*1641 FILLER_3_117
*1642 FILLER_3_123
*1643 FILLER_3_130
*1644 FILLER_3_137
*1645 FILLER_3_144
*1646 FILLER_3_15
*1647 FILLER_3_156
*1648 FILLER_3_169
*1649 FILLER_3_181
*1650 FILLER_3_193
*1651 FILLER_3_205
*1652 FILLER_3_217
*1653 FILLER_3_223
*1654 FILLER_3_225
*1655 FILLER_3_23
*1656 FILLER_3_237
*1657 FILLER_3_249
*1658 FILLER_3_261
*1659 FILLER_3_273
*1660 FILLER_3_279
*1661 FILLER_3_281
*1662 FILLER_3_293
*1663 FILLER_3_3
*1664 FILLER_3_41
*1665 FILLER_3_52
*1666 FILLER_3_57
*1667 FILLER_3_77
*1668 FILLER_3_81
*1669 FILLER_3_89
*1670 FILLER_3_96
*1671 FILLER_40_11
*1672 FILLER_40_116
*1673 FILLER_40_133
*1674 FILLER_40_139
*1675 FILLER_40_144
*1676 FILLER_40_168
*1677 FILLER_40_175
*1678 FILLER_40_188
*1679 FILLER_40_218
*1680 FILLER_40_230
*1681 FILLER_40_24
*1682 FILLER_40_242
*1683 FILLER_40_250
*1684 FILLER_40_253
*1685 FILLER_40_265
*1686 FILLER_40_277
*1687 FILLER_40_289
*1688 FILLER_40_297
*1689 FILLER_40_3
*1690 FILLER_40_38
*1691 FILLER_40_44
*1692 FILLER_40_65